
  EPA STORM WATER MANAGEMENT MODEL - VERSION 5.1 (Build 5.3.0.dev0)
  --------------------------------------------------------------

  WARNING 04: minimum elevation drop used for Conduit G60F090_G60F070_l1
  WARNING 04: minimum elevation drop used for Conduit G61F060_G61F140_l1
  WARNING 04: minimum elevation drop used for Conduit G62F012_G62F011_l1
  WARNING 04: minimum elevation drop used for Conduit G70F301_G70F11P_l1
  WARNING 04: minimum elevation drop used for Conduit G70F301_G70F11P_l2
  WARNING 04: minimum elevation drop used for Conduit G71F290_G71F280_l1
  WARNING 04: minimum elevation drop used for Conduit G71R050_G71U10F_l1
  WARNING 04: minimum elevation drop used for Conduit G72K875_G72F874_l1
  WARNING 04: minimum elevation drop used for Conduit G73F340_G73F330_l1
  WARNING 04: minimum elevation drop used for Conduit G76R180_G76R185_l1
  WARNING 10: crest elevation raised to downstream invert for regulator Link G60F61Yo1
  WARNING 02: maximum depth increased for Node G60K200
  WARNING 02: maximum depth increased for Node G60K210
  WARNING 02: maximum depth increased for Node G60U01F
  
  *********************
  Rainfall File Summary
  *********************
  Station    First        Last         Recording   Periods    Periods    Periods
  ID         Date         Date         Frequency  w/Precip    Missing    Malfunc.
  -------------------------------------------------------------------------------
  rg5425     06/04/2009   12/31/2018       1 min    278552          0          0
  rg5427     01/19/1979   12/31/2018       1 min    584610          0          0

  
  *********************************************************
  NOTE: The summary statistics displayed in this report are
  based on results found at every computational time step,  
  not just on results from each reporting time step.
  *********************************************************
  
  ****************
  Analysis Options
  ****************
  Flow Units ............... CMS
  Process Models:
    Rainfall/Runoff ........ YES
    RDII ................... NO
    Snowmelt ............... NO
    Groundwater ............ NO
    Flow Routing ........... YES
    Ponding Allowed ........ YES
    Water Quality .......... NO
  Infiltration Method ...... HORTON
  Flow Routing Method ...... DYNWAVE
  Surcharge Method ......... EXTRAN
  Starting Date ............ 08/11/2018 05:59:00
  Ending Date .............. 08/12/2018 06:00:00
  Antecedent Dry Days ...... 0.0
  Report Time Step ......... 00:01:00
  Wet Time Step ............ 00:01:00
  Dry Time Step ............ 00:15:00
  Routing Time Step ........ 4.00 sec
  Variable Time Step ....... YES
  Maximum Trials ........... 20
  Number of Threads ........ 4
  Head Tolerance ........... 0.001500 m
  
  
  *********************
  Control Actions Taken
  *********************


  Analysis begun on:  Mon Jun 15 17:12:08 2020
  Analysis ended on:  Mon Jun 15 17:12:12 2020
  Total elapsed time: 00:00:04