
  EPA STORM WATER MANAGEMENT MODEL - VERSION 5.1 (Build 5.3.0.dev0)
  --------------------------------------------------------------

  NOAH project 
  Rakvere pilot area 06.02.2020 
  from file: demo_catchment_rect4.inp 
  
  WARNING 03: negative offset ignored for Link 59954
  WARNING 04: minimum elevation drop used for Conduit 60036
  WARNING 04: minimum elevation drop used for Conduit 60027
  WARNING 03: negative offset ignored for Link 29693
  WARNING 03: negative offset ignored for Link 29735
  WARNING 04: minimum elevation drop used for Conduit 29735
  WARNING 04: minimum elevation drop used for Conduit 29736
  WARNING 03: negative offset ignored for Link 30217
  WARNING 03: negative offset ignored for Link 30257
  WARNING 04: minimum elevation drop used for Conduit 30400
  WARNING 04: minimum elevation drop used for Conduit 30401
  WARNING 04: minimum elevation drop used for Conduit 30402
  WARNING 03: negative offset ignored for Link 5540
  WARNING 03: negative offset ignored for Link 9655
  WARNING 04: minimum elevation drop used for Conduit 5620
  WARNING 04: minimum elevation drop used for Conduit 11755
  WARNING 04: minimum elevation drop used for Conduit 18955
  WARNING 04: minimum elevation drop used for Conduit 16575
  WARNING 04: minimum elevation drop used for Conduit 11756
  WARNING 03: negative offset ignored for Link 10583
  WARNING 04: minimum elevation drop used for Conduit 21783
  WARNING 03: negative offset ignored for Link 25655
  WARNING 04: minimum elevation drop used for Conduit 1
  
  *********************************************************
  NOTE: The summary statistics displayed in this report are
  based on results found at every computational time step,  
  not just on results from each reporting time step.
  *********************************************************
  
  ****************
  Analysis Options
  ****************
  Flow Units ............... LPS
  Process Models:
    Rainfall/Runoff ........ YES
    RDII ................... NO
    Snowmelt ............... YES
    Groundwater ............ NO
    Flow Routing ........... YES
    Ponding Allowed ........ NO
    Water Quality .......... NO
  Infiltration Method ...... HORTON
  Flow Routing Method ...... DYNWAVE
  Surcharge Method ......... EXTRAN
  Starting Date ............ 11/07/2019 00:00:00
  Ending Date .............. 11/07/2019 06:00:00
  Antecedent Dry Days ...... 0.0
  Report Time Step ......... 00:15:00
  Wet Time Step ............ 00:05:00
  Dry Time Step ............ 01:00:00
  Routing Time Step ........ 30.00 sec
  Variable Time Step ....... YES
  Maximum Trials ........... 8
  Number of Threads ........ 1
  Head Tolerance ........... 0.001500 m
  
  
  **************************        Volume         Depth
  Runoff Quantity Continuity     hectare-m            mm
  **************************     ---------       -------
  Initial Snow Cover .......         0.000         0.000
  Total Precipitation ......         0.537         8.333
  Evaporation Loss .........         0.004         0.056
  Infiltration Loss ........         0.246         3.814
  Surface Runoff ...........         0.272         4.218
  Snow Removed .............         0.000         0.000
  Final Snow Cover .........         0.000         0.000
  Final Storage ............         0.033         0.511
  Continuity Error (%) .....        -3.177
  
  
  **************************        Volume        Volume
  Flow Routing Continuity        hectare-m      10^6 ltr
  **************************     ---------     ---------
  Dry Weather Inflow .......         0.000         0.000
  Wet Weather Inflow .......         0.272         2.718
  Groundwater Inflow .......         0.000         0.000
  RDII Inflow ..............         0.000         0.000
  External Inflow ..........         1.080        10.800
  External Outflow .........         1.207        12.069
  Flooding Loss ............         0.022         0.220
  Evaporation Loss .........         0.000         0.000
  Exfiltration Loss ........         0.000         0.000
  Initial Stored Volume ....         0.373         3.729
  Final Stored Volume ......         0.494         4.936
  Continuity Error (%) .....         0.121
  
  
  *************************
  Highest Continuity Errors
  *************************
  Node 5896 (35.35%)
  Node 16430 (24.99%)
  Node 22186 (24.30%)
  Node 16431 (21.81%)
  Node 5902 (19.18%)
  
  
  ***************************
  Time-Step Critical Elements
  ***************************
  Link 1 (95.14%)
  Link 5620 (2.24%)
  Link 21783 (1.17%)
  
  
  ********************************
  Highest Flow Instability Indexes
  ********************************
  Link 21783 (37)
  Link 25655 (35)
  Link 21784 (34)
  Link 5540 (32)
  Link 1 (25)
  
  
  *************************
  Routing Time Step Summary
  *************************
  Minimum Time Step           :     0.07 sec
  Average Time Step           :     0.52 sec
  Maximum Time Step           :     5.63 sec
  Percent in Steady State     :    -0.00
  Average Iterations per Step :     2.58
  Percent Not Converging      :     4.29
  
  
  ***************************
  Subcatchment Runoff Summary
  ***************************
  
  ------------------------------------------------------------------------------------------------------------------------------
                            Total      Total      Total      Total     Imperv       Perv      Total       Total     Peak  Runoff
                           Precip      Runon       Evap      Infil     Runoff     Runoff     Runoff      Runoff   Runoff   Coeff
  Subcatchment                 mm         mm         mm         mm         mm         mm         mm    10^6 ltr      LPS
  ------------------------------------------------------------------------------------------------------------------------------
  s1                         8.33       0.00       0.01       7.50       0.83       0.00       0.83        0.00     0.19   0.100
  s2                         8.33       0.00       0.07       2.50       5.65       0.00       5.65        0.00     0.73   0.679
  s3                         8.33       0.00       0.04       5.34       2.87       0.00       2.87        0.00     3.68   0.344
  s4                         8.33       0.00       0.01       7.23       1.10       0.00       1.10        0.00     1.27   0.132
  s5                         8.33       0.00       0.06       3.33       4.86       0.00       4.86        0.00     0.94   0.584
  s6                         8.33       0.00       0.08       1.50       6.53       0.00       6.53        0.00     0.71   0.783
  s7                         8.33       0.00       0.05       3.93       4.27       0.00       4.27        0.00     1.93   0.512
  s8                         8.33       0.00       0.05       4.50       3.74       0.00       3.74        0.00     1.60   0.449
  s9                         8.33       0.00       0.10       0.00       7.88       0.00       7.88        0.00     2.77   0.945
  s10                        8.33       0.00       0.09       1.36       6.65       0.00       6.65        0.00     1.60   0.798
  s11                        8.33       0.00       0.03       6.04       2.22       0.00       2.22        0.01     5.64   0.267
  s12                        8.33       0.00       0.02       6.39       1.85       0.00       1.85        0.01    10.39   0.222
  s13                        8.33       0.00       0.07       3.00       5.21       0.00       5.21        0.00     0.56   0.625
  s14                        8.33       0.00       0.07       2.53       5.37       0.00       5.37        0.02    19.67   0.644
  s15                        8.33       0.00       0.09       0.87       6.92       0.00       6.92        0.00     4.04   0.831
  s16                        8.33       0.00       0.10       0.52       7.26       0.00       7.26        0.01     4.72   0.872
  s17                        8.33       0.00       0.08       2.05       6.10       0.00       6.10        0.00     1.44   0.732
  s18                        8.33       0.00       0.10       0.00       7.81       0.00       7.81        0.00     2.43   0.937
  s19                        8.33       0.00       0.08       2.05       6.04       0.00       6.04        0.00     1.44   0.725
  s20                        8.33       0.00       0.08       1.88       6.38       0.00       6.38        0.00     0.54   0.766
  s21                        8.33       0.00       0.05       4.50       3.80       0.00       3.80        0.00     0.40   0.456
  s22                        8.33       0.00       0.07       2.55       5.41       0.00       5.41        0.01     5.65   0.650
  s23                        8.33       0.00       0.09       0.94       7.04       0.00       7.04        0.00     1.23   0.845
  s24                        8.33       0.00       0.05       4.50       3.84       0.00       3.84        0.00     0.40   0.460
  s25                        8.33       0.00       0.04       5.00       3.34       0.00       3.34        0.00     0.21   0.401
  s26                        8.33       0.00       0.04       5.36       2.97       0.00       2.97        0.00     0.87   0.357
  s27                        8.33       0.00       0.04       5.36       2.89       0.00       2.89        0.00     1.73   0.347
  s28                        8.33       0.00       0.06       3.75       4.50       0.00       4.50        0.00     1.14   0.540
  s29                        8.33       0.00       0.05       4.04       4.25       0.00       4.25        0.00     1.16   0.510
  s30                        8.33       0.00       0.03       5.54       2.71       0.00       2.71        0.00     3.78   0.326
  s31                        8.33       0.00       0.05       4.13       4.07       0.00       4.07        0.00     1.75   0.489
  s32                        8.33       0.00       0.10       0.00       8.02       0.00       8.02        0.00     1.04   0.962
  s33                        8.33       0.00       0.07       3.00       5.25       0.00       5.25        0.00     0.56   0.630
  s34                        8.33       0.00       0.06       3.75       4.51       0.00       4.51        0.00     0.57   0.541
  s35                        8.33       0.00       0.04       5.30       2.92       0.00       2.92        0.00     3.66   0.350
  s36                        8.33       0.00       0.09       1.11       6.88       0.00       6.88        0.00     4.06   0.825
  s37                        8.33       0.00       0.06       3.13       5.09       0.00       5.09        0.00     1.30   0.611
  s38                        8.33       0.00       0.06       3.75       4.58       0.00       4.58        0.00     0.19   0.549
  s39                        8.33       0.00       0.07       2.41       5.51       0.00       5.51        0.01     6.90   0.661
  s40                        8.33       0.00       0.09       0.68       7.32       0.00       7.32        0.00     1.75   0.879
  s41                        8.33       0.00       0.10       0.00       7.94       0.00       7.94        0.00     3.12   0.953
  s42                        8.33       0.00       0.04       4.92       3.18       0.00       3.18        0.03    26.01   0.382
  s43                        8.33       0.00       0.10       0.00       7.82       0.00       7.82        0.00     3.64   0.938
  s44                        8.33       0.00       0.10       0.00       7.68       0.00       7.68        0.01     7.28   0.921
  s45                        8.33       0.00       0.10       0.50       7.07       0.00       7.07        0.02    21.52   0.849
  s46                        8.33       0.00       0.06       3.05       4.78       0.00       4.78        0.04    32.38   0.574
  s47                        8.33       0.00       0.03       5.70       2.53       0.00       2.53        0.00     3.89   0.303
  s48                        8.33       0.00       0.06       3.75       4.43       0.00       4.43        0.00     1.72   0.532
  s49                        8.33       0.00       0.08       2.08       5.97       0.00       5.97        0.00     2.34   0.716
  s50                        8.33       0.00       0.06       3.75       4.36       0.00       4.36        0.00     3.62   0.523
  s51                        8.33       0.00       0.07       2.73       5.31       0.00       5.31        0.01     6.42   0.638
  s52                        8.33       0.00       0.07       2.59       5.27       0.00       5.27        0.02    20.77   0.633
  s53                        8.33       0.00       0.09       1.25       6.96       0.00       6.96        0.00     0.88   0.835
  s54                        8.33       0.00       0.10       0.00       7.82       0.00       7.82        0.00     2.95   0.939
  s55                        8.33       0.00       0.06       3.59       4.57       0.00       4.57        0.00     2.27   0.548
  s56                        8.33       0.00       0.04       4.94       3.32       0.00       3.32        0.00     2.90   0.398
  s57                        8.33       0.00       0.04       5.23       2.83       0.00       2.83        0.07    65.10   0.339
  s58                        8.33       0.00       0.07       3.03       4.98       0.00       4.98        0.01     5.18   0.598
  s59                        8.33       0.00       0.07       2.25       5.96       0.00       5.96        0.00     1.27   0.715
  s60                        8.33       0.00       0.05       3.95       4.02       0.00       4.02        0.03    24.41   0.482
  s61                        8.33       0.00       0.09       1.25       6.68       0.00       6.68        0.00     2.65   0.802
  s62                        8.33       0.00       0.04       5.07       3.05       0.00       3.05        0.02    20.53   0.366
  s63                        8.33       0.00       0.07       2.87       5.14       0.00       5.14        0.00     3.87   0.617
  s64                        8.33       0.00       0.06       3.48       4.53       0.00       4.53        0.01     5.65   0.543
  s65                        8.33       0.00       0.04       4.82       3.33       0.00       3.33        0.01    12.28   0.400
  s66                        8.33       0.00       0.04       4.90       3.19       0.00       3.19        0.04    38.64   0.383
  s67                        8.33       0.00       0.09       1.32       6.62       0.00       6.62        0.00     2.48   0.794
  s68                        8.33       0.00       0.04       5.00       3.30       0.00       3.30        0.00     0.83   0.396
  s69                        8.33       0.00       0.10       0.00       7.98       0.00       7.98        0.00     0.87   0.957
  s70                        8.33       0.00       0.10       0.00       7.89       0.00       7.89        0.00     1.04   0.947
  s71                        8.33       0.00       0.08       1.76       6.32       0.00       6.32        0.00     2.32   0.758
  s72                        8.33       0.00       0.07       2.50       5.61       0.00       5.61        0.00     0.73   0.673
  s73                        8.33       0.00       0.03       5.75       2.41       0.00       2.41        0.02    18.67   0.289
  s74                        8.33       0.00       0.03       5.55       2.68       0.00       2.68        0.00     4.23   0.322
  s75                        8.33       0.00       0.03       6.14       2.19       0.00       2.19        0.00     0.50   0.263
  s76                        8.33       0.00       0.07       2.50       5.65       0.00       5.65        0.00     1.46   0.678
  s77                        8.33       0.00       0.07       2.50       5.81       0.00       5.81        0.00     0.36   0.697
  s78                        8.33       0.00       0.08       1.50       6.52       0.00       6.52        0.00     1.42   0.782
  s79                        8.33       0.00       0.09       0.62       7.30       0.00       7.30        0.00     1.92   0.877
  s80                        8.33       0.00       0.07       2.40       5.43       0.00       5.43        0.03    26.98   0.652
  s81                        8.33       0.00       0.10       0.00       7.73       0.00       7.73        0.00     4.16   0.928
  s82                        8.33       0.00       0.10       0.00       7.82       0.00       7.82        0.00     2.95   0.938
  s83                        8.33       0.00       0.09       0.94       7.11       0.00       7.11        0.00     1.23   0.854
  s84                        8.33       0.00       0.10       0.00       7.97       0.00       7.97        0.00     1.96   0.956
  s85                        8.33       0.00       0.03       5.63       2.69       0.00       2.69        0.00     0.68   0.323
  s86                        8.33       0.00       0.07       2.68       5.08       0.00       5.08        0.12   104.03   0.609
  s87                        8.33       0.00       0.07       2.31       5.79       0.00       5.79        0.00     1.63   0.694
  s88                        8.33       0.00       0.06       3.75       4.53       0.00       4.53        0.00     0.57   0.544
  s89                        8.33       0.00       0.10       0.00       7.99       0.00       7.99        0.00     1.56   0.959
  s90                        8.33       0.00       0.02       6.65       1.66       0.00       1.66        0.00     3.09   0.200
  s91                        8.33       0.00       0.01       7.50       0.83       0.00       0.83        0.00     0.62   0.100
  s92                        8.33       0.00       0.07       2.50       5.59       0.00       5.59        0.00     1.09   0.671
  s93                        8.33       0.00       0.04       4.69       3.55       0.00       3.55        0.00     0.61   0.426
  s94                        8.33       0.00       0.08       2.14       5.78       0.00       5.78        0.00     2.70   0.693
  s95                        8.33       0.00       0.08       1.50       6.65       0.00       6.65        0.00     0.71   0.798
  s96                        8.33       0.00       0.06       3.41       4.77       0.00       4.77        0.00     1.13   0.572
  s97                        8.33       0.00       0.08       1.50       6.59       0.00       6.59        0.00     1.42   0.791
  s98                        8.33       0.00       0.06       3.75       4.55       0.00       4.55        0.00     0.38   0.546
  s99                        8.33       0.00       0.08       2.05       6.05       0.00       6.05        0.00     1.44   0.726
  s100                       8.33       0.00       0.07       2.50       5.68       0.00       5.68        0.00     1.09   0.682
  s101                       8.33       0.00       0.09       0.75       7.35       0.00       7.35        0.00     1.58   0.882
  s102                       8.33       0.00       0.03       6.15       2.12       0.00       2.12        0.00     3.28   0.255
  s103                       8.33       0.00       0.05       3.88       4.25       0.00       4.25        0.00     2.69   0.510
  s104                       8.33       0.00       0.09       0.83       7.19       0.00       7.19        0.00     1.40   0.863
  s105                       8.33       0.00       0.09       0.83       7.23       0.00       7.23        0.00     1.40   0.867
  s106                       8.33       0.00       0.08       1.50       6.69       0.00       6.69        0.00     0.71   0.802
  s107                       8.33       0.00       0.09       0.83       7.22       0.00       7.22        0.00     1.40   0.866
  s108                       8.33       0.00       0.10       0.00       7.97       0.00       7.97        0.00     1.73   0.956
  s109                       8.33       0.00       0.10       0.00       7.95       0.00       7.95        0.00     2.25   0.954
  s110                       8.33       0.00       0.06       3.46       4.68       0.00       4.68        0.00     2.64   0.562
  s111                       8.33       0.00       0.10       0.00       7.98       0.00       7.98        0.00     1.04   0.958
  s112                       8.33       0.00       0.07       2.50       5.66       0.00       5.66        0.00     1.09   0.679
  s113                       8.33       0.00       0.08       1.67       6.33       0.00       6.33        0.00     1.25   0.760
  s114                       8.33       0.00       0.09       0.75       7.18       0.00       7.18        0.00     1.58   0.862
  s115                       8.33       0.00       0.08       2.21       5.83       0.00       5.83        0.00     2.17   0.699
  s116                       8.33       0.00       0.07       2.25       5.72       0.00       5.72        0.00     3.80   0.686
  s117                       8.33       0.00       0.10       0.00       7.87       0.00       7.87        0.00     1.91   0.944
  s118                       8.33       0.00       0.07       2.50       5.76       0.00       5.76        0.00     0.36   0.691
  s119                       8.33       0.00       0.07       2.65       5.36       0.00       5.36        0.00     2.01   0.643
  s120                       8.33       0.00       0.04       5.45       2.73       0.00       2.73        0.01     4.61   0.328
  s121                       8.33       0.00       0.09       1.32       6.64       0.00       6.64        0.00     2.48   0.797
  s122                       8.33       0.00       0.05       4.01       4.08       0.00       4.08        0.01     5.22   0.490
  s123                       8.33       0.00       0.06       3.28       4.90       0.00       4.90        0.00     1.68   0.588
  s124                       8.33       0.00       0.03       6.25       2.03       0.00       2.03        0.00     3.12   0.244
  s125                       8.33       0.00       0.09       0.75       7.19       0.00       7.19        0.00     1.58   0.863
  s126                       8.33       0.00       0.10       0.00       7.88       0.00       7.88        0.00     1.56   0.946
  s127                       8.33       0.00       0.03       5.66       2.61       0.00       2.61        0.00     2.72   0.313
  s128                       8.33       0.00       0.07       2.50       5.73       0.00       5.73        0.00     1.09   0.687
  s129                       8.33       0.00       0.02       6.32       2.02       0.00       2.02        0.00     0.80   0.242
  s130                       8.33       0.00       0.02       6.41       1.88       0.00       1.88        0.00     2.48   0.226
  s131                       8.33       0.00       0.10       0.42       7.54       0.00       7.54        0.00     2.97   0.904
  s132                       8.33       0.00       0.02       6.87       1.46       0.00       1.46        0.00     0.36   0.175
  s133                       8.33       0.00       0.07       3.00       5.28       0.00       5.28        0.00     0.56   0.634
  s134                       8.33       0.00       0.09       1.25       6.89       0.00       6.89        0.00     1.77   0.827
  s135                       8.33       0.00       0.05       4.50       3.84       0.00       3.84        0.00     0.40   0.461
  s136                       8.33       0.00       0.08       2.02       5.88       0.00       5.88        0.01     6.83   0.706
  s137                       8.33       0.00       0.07       2.25       5.92       0.00       5.92        0.00     1.27   0.711
  s138                       8.33       0.00       0.10       0.00       7.82       0.00       7.82        0.00     1.56   0.938
  s139                       8.33       0.00       0.06       3.21       5.04       0.00       5.04        0.00     0.75   0.605
  s140                       8.33       0.00       0.04       5.00       3.17       0.00       3.17        0.00     2.71   0.380
  s141                       8.33       0.00       0.10       0.00       7.78       0.00       7.78        0.00     2.43   0.934
  s142                       8.33       0.00       0.08       1.67       6.25       0.00       6.25        0.00     2.50   0.750
  s143                       8.33       0.00       0.04       5.21       2.93       0.00       2.93        0.02    14.90   0.352
  s144                       8.33       0.00       0.10       0.25       7.47       0.00       7.47        0.01     5.04   0.897
  s145                       8.33       0.00       0.10       0.00       7.84       0.00       7.84        0.00     1.91   0.941
  s146                       8.33       0.00       0.10       0.00       8.16       0.00       8.16        0.00     0.52   0.979
  s147                       8.33       0.00       0.08       1.88       6.16       0.00       6.16        0.00     1.08   0.739
  s148                       8.33       0.00       0.08       1.90       6.11       0.00       6.11        0.00     3.35   0.733
  s149                       8.33       0.00       0.09       0.83       7.11       0.00       7.11        0.00     1.40   0.853
  s150                       8.33       0.00       0.08       1.50       6.56       0.00       6.56        0.00     1.42   0.787
  s151                       8.33       0.00       0.08       1.67       6.45       0.00       6.45        0.00     1.25   0.774
  s152                       8.33       0.00       0.10       0.00       7.94       0.00       7.94        0.00     1.56   0.953
  s153                       8.33       0.00       0.10       0.00       8.22       0.00       8.22        0.00     0.17   0.986
  s154                       8.33       0.00       0.10       0.00       7.89       0.00       7.89        0.00     1.56   0.947
  s155                       8.33       0.00       0.09       0.75       7.26       0.00       7.26        0.00     1.58   0.871
  s156                       8.33       0.00       0.08       1.67       6.45       0.00       6.45        0.00     1.25   0.774
  s157                       8.33       0.00       0.06       3.21       5.04       0.00       5.04        0.00     0.75   0.605
  s158                       8.33       0.00       0.08       1.67       6.41       0.00       6.41        0.00     1.25   0.769
  s159                       8.33       0.00       0.10       0.00       8.18       0.00       8.18        0.00     0.52   0.982
  s160                       8.33       0.00       0.08       2.14       6.03       0.00       6.03        0.00     0.90   0.724
  s161                       8.33       0.00       0.08       1.67       6.39       0.00       6.39        0.00     1.25   0.767
  s162                       8.33       0.00       0.06       3.21       4.89       0.00       4.89        0.00     0.75   0.587
  s163                       8.33       0.00       0.10       0.00       7.85       0.00       7.85        0.00     1.21   0.942
  s164                       8.33       0.00       0.09       0.83       7.11       0.00       7.11        0.00     1.40   0.853
  s165                       8.33       0.00       0.06       3.13       4.97       0.00       4.97        0.00     1.30   0.596
  s166                       8.33       0.00       0.02       6.56       1.75       0.00       1.75        0.00     1.77   0.210
  s167                       8.33       0.00       0.03       5.85       2.43       0.00       2.43        0.00     2.12   0.292
  s168                       8.33       0.00       0.07       2.50       5.62       0.00       5.62        0.00     1.09   0.675
  s169                       8.33       0.00       0.09       0.83       7.24       0.00       7.24        0.00     1.40   0.869
  s170                       8.33       0.00       0.08       2.14       6.04       0.00       6.04        0.00     0.90   0.725
  s171                       8.33       0.00       0.08       2.05       6.12       0.00       6.12        0.00     1.44   0.735
  s172                       8.33       0.00       0.04       5.31       2.89       0.00       2.89        0.01     4.53   0.347
  s173                       8.33       0.00       0.05       4.50       3.70       0.00       3.70        0.00     2.79   0.444
  s174                       8.33       0.00       0.02       6.36       1.95       0.00       1.95        0.00     1.89   0.234
  s175                       8.33       0.00       0.06       3.75       4.49       0.00       4.49        0.00     1.14   0.538
  s176                       8.33       0.00       0.07       3.00       5.25       0.00       5.25        0.00     0.56   0.630
  s177                       8.33       0.00       0.07       2.50       5.66       0.00       5.66        0.00     1.09   0.679
  s178                       8.33       0.00       0.08       1.67       6.43       0.00       6.43        0.00     1.25   0.772
  s179                       8.33       0.00       0.07       3.00       5.21       0.00       5.21        0.00     1.11   0.625
  s180                       8.33       0.00       0.07       2.88       5.21       0.00       5.21        0.00     1.47   0.626
  s181                       8.33       0.00       0.06       3.09       5.09       0.00       5.09        0.00     1.86   0.611
  s182                       8.33       0.00       0.05       4.41       3.81       0.00       3.81        0.00     1.39   0.458
  s183                       8.33       0.00       0.08       2.05       6.08       0.00       6.08        0.00     1.44   0.729
  s184                       8.33       0.00       0.05       4.50       3.82       0.00       3.82        0.00     0.40   0.458
  s185                       8.33       0.00       0.04       5.00       3.28       0.00       3.28        0.00     1.04   0.394
  s186                       8.33       0.00       0.07       2.50       5.79       0.00       5.79        0.00     0.36   0.695
  s187                       8.33       0.00       0.05       4.17       4.10       0.00       4.10        0.00     0.78   0.493
  s188                       8.33       0.00       0.05       4.41       3.80       0.00       3.80        0.00     1.39   0.456
  s189                       8.33       0.00       0.04       5.13       3.13       0.00       3.13        0.00     1.27   0.375
  s190                       8.33       0.00       0.07       2.88       5.25       0.00       5.25        0.00     1.47   0.629
  s191                       8.33       0.00       0.03       5.83       2.49       0.00       2.49        0.00     0.47   0.299
  s192                       8.33       0.00       0.07       2.34       5.71       0.00       5.71        0.00     1.99   0.685
  s193                       8.33       0.00       0.10       0.00       7.80       0.00       7.80        0.00     2.95   0.935
  s194                       8.33       0.00       0.10       0.00       7.81       0.00       7.81        0.00     3.12   0.937
  s195                       8.33       0.00       0.10       0.00       7.91       0.00       7.91        0.00     1.56   0.950
  s196                       8.33       0.00       0.10       0.00       7.64       0.00       7.64        0.02    15.23   0.917
  s197                       8.33       0.00       0.09       0.94       7.01       0.00       7.01        0.00     3.69   0.842
  s198                       8.33       0.00       0.09       1.32       6.69       0.00       6.69        0.00     2.48   0.803
  s199                       8.33       0.00       0.08       1.67       6.45       0.00       6.45        0.00     1.25   0.774
  s200                       8.33       0.00       0.10       0.00       8.02       0.00       8.02        0.00     0.35   0.962
  s201                       8.33       0.00       0.04       4.70       3.43       0.00       3.43        0.01     5.06   0.412
  s202                       8.33       0.00       0.02       6.86       1.43       0.00       1.43        0.00     3.61   0.172
  s203                       8.33       0.00       0.07       2.71       5.20       0.00       5.20        0.01    10.99   0.624
  s204                       8.33       0.00       0.10       0.00       7.76       0.00       7.76        0.00     2.95   0.931
  s205                       8.33       0.00       0.10       0.42       7.47       0.00       7.47        0.00     2.97   0.896
  s206                       8.33       0.00       0.05       3.99       4.01       0.00       4.01        0.02    15.63   0.481
  s207                       8.33       0.00       0.07       3.00       5.08       0.00       5.08        0.00     3.33   0.609
  s208                       8.33       0.00       0.10       0.00       8.18       0.00       8.18        0.00     0.52   0.982
  s209                       8.33       0.00       0.08       1.50       6.64       0.00       6.64        0.00     0.71   0.797
  s210                       8.33       0.00       0.05       4.23       3.84       0.00       3.84        0.01     8.03   0.460
  s211                       8.33       0.00       0.10       0.00       7.84       0.00       7.84        0.01     4.51   0.941
  s212                       8.33       0.00       0.07       2.31       5.46       0.00       5.46        0.05    45.17   0.655
  s213                       8.33       0.00       0.10       0.23       7.53       0.00       7.53        0.01     5.57   0.904
  s214                       8.33       0.00       0.09       1.20       6.51       0.00       6.51        0.02    14.78   0.781
  s215                       8.33       0.00       0.10       0.00       7.84       0.00       7.84        0.00     1.73   0.941
  s216                       8.33       0.00       0.09       0.83       7.17       0.00       7.17        0.00     1.40   0.861
  s217                       8.33       0.00       0.09       1.07       7.03       0.00       7.03        0.00     1.06   0.843
  s218                       8.33       0.00       0.09       1.36       6.65       0.00       6.65        0.00     1.60   0.798
  s219                       8.33       0.00       0.08       1.88       6.23       0.00       6.23        0.00     1.08   0.747
  s220                       8.33       0.00       0.10       0.00       7.94       0.00       7.94        0.00     1.91   0.953
  s221                       8.33       0.00       0.07       2.65       5.46       0.00       5.46        0.00     2.01   0.655
  s222                       8.33       0.00       0.04       4.69       3.61       0.00       3.61        0.00     0.61   0.433
  s223                       8.33       0.00       0.09       1.25       6.74       0.00       6.74        0.00     1.77   0.809
  s224                       8.33       0.00       0.06       3.21       5.02       0.00       5.02        0.00     0.75   0.602
  s225                       8.33       0.00       0.07       2.50       5.59       0.00       5.59        0.00     1.09   0.671
  s226                       8.33       0.00       0.07       3.00       5.08       0.00       5.08        0.00     1.11   0.610
  s227                       8.33       0.00       0.07       3.00       5.12       0.00       5.12        0.00     1.11   0.615
  s228                       8.33       0.00       0.07       2.50       5.63       0.00       5.63        0.00     1.09   0.676
  s229                       8.33       0.00       0.04       5.00       3.33       0.00       3.33        0.00     0.21   0.399
  s230                       8.33       0.00       0.07       2.50       5.69       0.00       5.69        0.00     1.09   0.682
  s231                       8.33       0.00       0.06       3.21       5.05       0.00       5.05        0.00     0.75   0.606
  s232                       8.33       0.00       0.08       1.67       6.41       0.00       6.41        0.00     1.25   0.769
  s233                       8.33       0.00       0.05       4.09       4.09       0.00       4.09        0.00     0.97   0.491
  s234                       8.33       0.00       0.08       1.61       6.39       0.00       6.39        0.00     1.96   0.766
  s235                       8.33       0.00       0.07       2.50       5.59       0.00       5.59        0.00     1.09   0.671
  s236                       8.33       0.00       0.07       2.50       5.66       0.00       5.66        0.00     1.09   0.679
  s237                       8.33       0.00       0.07       2.73       5.43       0.00       5.43        0.00     1.28   0.651
  s238                       8.33       0.00       0.02       7.08       1.22       0.00       1.22        0.00     2.34   0.147
  s239                       8.33       0.00       0.02       6.36       1.92       0.00       1.92        0.00     3.78   0.231
  s240                       8.33       0.00       0.08       1.67       6.47       0.00       6.47        0.00     1.25   0.777
  s241                       8.33       0.00       0.07       2.81       5.43       0.00       5.43        0.00     0.92   0.652
  s242                       8.33       0.00       0.06       3.75       4.50       0.00       4.50        0.00     1.34   0.540
  s243                       8.33       0.00       0.10       0.00       8.08       0.00       8.08        0.00     1.21   0.969
  s244                       8.33       0.00       0.06       3.59       4.55       0.00       4.55        0.00     2.27   0.546
  s245                       8.33       0.00       0.07       2.73       5.43       0.00       5.43        0.00     1.28   0.652
  s246                       8.33       0.00       0.01       7.50       0.83       0.00       0.83        0.00     0.03   0.100
  s247                       8.33       0.00       0.07       2.81       5.40       0.00       5.40        0.00     0.92   0.648
  s248                       8.33       0.00       0.10       0.00       7.89       0.00       7.89        0.00     1.56   0.947
  s249                       8.33       0.00       0.10       0.00       7.93       0.00       7.93        0.00     1.56   0.951
  s250                       8.33       0.00       0.07       2.34       5.74       0.00       5.74        0.00     1.99   0.689
  s251                       8.33       0.00       0.10       0.27       7.43       0.00       7.43        0.01     9.39   0.892
  s252                       8.33       0.00       0.10       0.50       7.28       0.00       7.28        0.01     4.89   0.873
  s253                       8.33       0.00       0.06       3.13       5.05       0.00       5.05        0.00     1.30   0.606
  s254                       8.33       0.00       0.05       4.02       4.12       0.00       4.12        0.00     2.51   0.495
  s255                       8.33       0.00       0.09       0.98       6.89       0.00       6.89        0.00     3.52   0.827
  s256                       8.33       0.00       0.10       0.00       8.12       0.00       8.12        0.00     0.52   0.975
  s257                       8.33       0.00       0.10       0.00       7.78       0.00       7.78        0.00     2.95   0.934
  s258                       8.33       0.00       0.08       2.00       5.97       0.00       5.97        0.00     3.95   0.716
  s259                       8.33       0.00       0.07       2.38       5.59       0.00       5.59        0.01     7.44   0.670
  s260                       8.33       0.00       0.06       3.75       4.54       0.00       4.54        0.00     0.38   0.545
  s261                       8.33       0.00       0.09       0.98       6.90       0.00       6.90        0.00     3.52   0.828
  s262                       8.33       0.00       0.09       1.02       6.88       0.00       6.88        0.00     3.35   0.825
  s263                       8.33       0.00       0.08       2.05       6.00       0.00       6.00        0.00     1.44   0.720
  s264                       8.33       0.00       0.09       1.25       6.85       0.00       6.85        0.00     0.88   0.822
  s265                       8.33       0.00       0.09       0.68       7.23       0.00       7.23        0.00     1.75   0.868
  s266                       8.33       0.00       0.07       3.00       5.25       0.00       5.25        0.00     0.56   0.630
  s267                       8.33       0.00       0.07       2.50       5.66       0.00       5.66        0.00     1.09   0.679
  s268                       8.33       0.00       0.06       3.75       4.45       0.00       4.45        0.00     1.14   0.534
  s269                       8.33       0.00       0.06       3.55       4.50       0.00       4.50        0.00     3.78   0.540
  s270                       8.33       0.00       0.10       0.00       7.94       0.00       7.94        0.00     1.56   0.953
  s271                       8.33       0.00       0.06       3.75       4.29       0.00       4.29        0.01     7.06   0.515
  s272                       8.33       0.00       0.09       0.75       7.31       0.00       7.31        0.00     1.58   0.878
  s273                       8.33       0.00       0.06       3.75       4.34       0.00       4.34        0.00     3.43   0.521
  s274                       8.33       0.00       0.03       6.12       2.17       0.00       2.17        0.00     1.75   0.260
  s275                       8.33       0.00       0.06       3.75       4.53       0.00       4.53        0.00     0.57   0.544
  s276                       8.33       0.00       0.05       4.17       4.09       0.00       4.09        0.00     0.78   0.491
  s277                       8.33       0.00       0.04       5.36       2.96       0.00       2.96        0.00     0.43   0.356
  s278                       8.33       0.00       0.05       4.29       3.92       0.00       3.92        0.00     1.18   0.471
  s279                       8.33       0.00       0.08       1.90       5.88       0.00       5.88        0.01     9.47   0.705
  s280                       8.33       0.00       0.10       0.00       7.93       0.00       7.93        0.00     0.52   0.952
  s281                       8.33       0.00       0.10       0.00       7.93       0.00       7.93        0.00     1.04   0.952
  s282                       8.33       0.00       0.05       4.50       3.57       0.00       3.57        0.01     6.38   0.429
  s283                       8.33       0.00       0.06       3.75       4.42       0.00       4.42        0.00     1.72   0.531
  s284                       8.33       0.00       0.07       2.68       5.42       0.00       5.42        0.00     1.65   0.650
  s285                       8.33       0.00       0.08       1.87       6.15       0.00       6.15        0.00     1.61   0.738
  s286                       8.33       0.00       0.05       4.37       3.62       0.00       3.62        0.07    60.04   0.435
  s287                       8.33       0.00       0.10       0.00       7.76       0.00       7.76        0.00     4.16   0.931
  s288                       8.33       0.00       0.04       4.90       3.30       0.00       3.30        0.00     3.71   0.396
  s289                       8.33       0.00       0.04       5.32       2.89       0.00       2.89        0.00     3.89   0.347
  s290                       8.33       0.00       0.08       1.87       6.23       0.00       6.23        0.00     1.61   0.748
  s291                       8.33       0.00       0.06       3.40       4.53       0.00       4.53        0.01     9.94   0.544
  s292                       8.33       0.00       0.04       5.00       3.09       0.00       3.09        0.01    10.40   0.371
  s293                       8.33       0.00       0.10       0.54       7.41       0.00       7.41        0.00     2.27   0.889
  s294                       8.33       0.00       0.08       1.67       6.33       0.00       6.33        0.00     2.50   0.760
  s295                       8.33       0.00       0.09       0.94       6.97       0.00       6.97        0.00     3.69   0.837
  s296                       8.33       0.00       0.07       2.81       5.31       0.00       5.31        0.00     1.84   0.638
  s297                       8.33       0.00       0.04       5.00       3.25       0.00       3.25        0.00     1.25   0.390
  s298                       8.33       0.00       0.08       1.73       6.35       0.00       6.35        0.00     1.79   0.762
  s299                       8.33       0.00       0.09       1.36       6.60       0.00       6.60        0.00     3.19   0.792
  s300                       8.33       0.00       0.06       3.21       5.00       0.00       5.00        0.00     0.75   0.600
  s301                       8.33       0.00       0.08       1.60       6.35       0.00       6.35        0.01     6.59   0.762
  s302                       8.33       0.00       0.10       0.54       7.41       0.00       7.41        0.00     2.27   0.889
  s303                       8.33       0.00       0.06       3.75       4.54       0.00       4.54        0.00     0.57   0.544
  s304                       8.33       0.00       0.09       0.83       7.24       0.00       7.24        0.00     1.40   0.869
  s305                       8.33       0.00       0.08       1.91       5.95       0.00       5.95        0.01     6.28   0.714
  s306                       8.33       0.00       0.09       1.13       6.77       0.00       6.77        0.00     3.00   0.812
  s307                       8.33       0.00       0.07       2.50       5.72       0.00       5.72        0.00     1.09   0.686
  s308                       8.33       0.00       0.01       7.50       0.83       0.00       0.83        0.00     0.02   0.100
  s309                       8.33       0.00       0.07       2.50       5.49       0.00       5.49        0.01     5.10   0.659
  s310                       8.33       0.00       0.03       5.63       2.64       0.00       2.64        0.00     2.26   0.317
  s311                       8.33       0.00       0.05       4.57       3.58       0.00       3.58        0.00     1.80   0.430
  s312                       8.33       0.00       0.09       1.07       6.88       0.00       6.88        0.00     1.06   0.826
  s313                       8.33       0.00       0.09       0.62       7.22       0.00       7.22        0.00     1.92   0.866
  s314                       8.33       0.00       0.08       2.01       5.89       0.00       5.89        0.01     5.39   0.707
  s315                       8.33       0.00       0.03       5.63       2.64       0.00       2.64        0.00     2.25   0.316
  s316                       8.33       0.00       0.08       2.14       6.00       0.00       6.00        0.00     0.90   0.720
  s317                       8.33       0.00       0.10       0.00       7.81       0.00       7.81        0.00     2.25   0.937
  s318                       8.33       0.00       0.02       6.75       1.58       0.00       1.58        0.00     0.33   0.190
  s319                       8.33       0.00       0.09       0.62       7.35       0.00       7.35        0.00     1.92   0.882
  s320                       8.33       0.00       0.07       3.00       5.23       0.00       5.23        0.00     0.56   0.627
  s321                       8.33       0.00       0.08       1.67       6.54       0.00       6.54        0.00     1.25   0.785
  s322                       8.33       0.00       0.08       1.50       6.67       0.00       6.67        0.00     1.42   0.801
  s323                       8.33       0.00       0.03       5.74       2.49       0.00       2.49        0.01     4.60   0.298
  s324                       8.33       0.00       0.10       0.00       7.88       0.00       7.88        0.00     2.25   0.945
  s325                       8.33       0.00       0.07       2.40       5.64       0.00       5.64        0.00     3.09   0.677
  s326                       8.33       0.00       0.08       2.08       6.01       0.00       6.01        0.00     2.34   0.721
  s327                       8.33       0.00       0.05       4.04       4.17       0.00       4.17        0.00     2.32   0.500
  s328                       8.33       0.00       0.03       5.58       2.71       0.00       2.71        0.00     2.24   0.325
  s329                       8.33       0.00       0.02       6.89       1.39       0.00       1.39        0.01     7.77   0.167
  s330                       8.33       0.00       0.04       4.72       3.46       0.00       3.46        0.00     4.06   0.415
  s331                       8.33       0.00       0.02       6.93       1.38       0.00       1.38        0.00     4.22   0.165
  s332                       8.33       0.00       0.10       0.00       8.12       0.00       8.12        0.00     0.87   0.975
  s333                       8.33       0.00       0.03       6.08       2.20       0.00       2.20        0.00     2.72   0.264
  s334                       8.33       0.00       0.07       2.50       5.59       0.00       5.59        0.00     1.09   0.671
  s335                       8.33       0.00       0.02       6.49       1.77       0.00       1.77        0.01     7.41   0.212
  s336                       8.33       0.00       0.05       3.97       4.24       0.00       4.24        0.00     1.54   0.508
  s337                       8.33       0.00       0.03       5.59       2.67       0.00       2.67        0.00     3.14   0.320
  s338                       8.33       0.00       0.08       2.14       6.10       0.00       6.10        0.00     0.90   0.732
  s339                       8.33       0.00       0.07       2.50       5.61       0.00       5.61        0.00     1.09   0.673
  s340                       8.33       0.00       0.07       2.50       5.76       0.00       5.76        0.00     0.36   0.692
  s341                       8.33       0.00       0.03       6.14       2.11       0.00       2.11        0.01     4.79   0.254
  s342                       8.33       0.00       0.07       2.50       5.77       0.00       5.77        0.00     0.73   0.693
  s343                       8.33       0.00       0.03       6.04       2.13       0.00       2.13        0.02    18.38   0.256
  s344                       8.33       0.00       0.10       0.00       7.88       0.00       7.88        0.00     1.56   0.946
  s345                       8.33       0.00       0.10       0.00       8.07       0.00       8.07        0.00     0.52   0.968
  s346                       8.33       0.00       0.09       0.83       7.14       0.00       7.14        0.00     1.40   0.857
  s347                       8.33       0.00       0.08       1.67       6.32       0.00       6.32        0.00     1.25   0.758
  s348                       8.33       0.00       0.08       1.67       6.39       0.00       6.39        0.00     1.25   0.767
  s349                       8.33       0.00       0.08       2.05       5.97       0.00       5.97        0.00     1.44   0.716
  s350                       8.33       0.00       0.08       2.14       5.89       0.00       5.89        0.00     0.90   0.707
  s351                       8.33       0.00       0.06       3.33       4.79       0.00       4.79        0.00     0.94   0.575
  s352                       8.33       0.00       0.09       0.98       6.84       0.00       6.84        0.00     3.52   0.821
  s353                       8.33       0.00       0.10       0.58       7.23       0.00       7.23        0.00     4.20   0.868
  s354                       8.33       0.00       0.04       5.22       2.95       0.00       2.95        0.01     5.76   0.354
  s355                       8.33       0.00       0.01       7.50       0.83       0.00       0.83        0.00     0.23   0.100
  s356                       8.33       0.00       0.03       5.74       2.55       0.00       2.55        0.00     1.84   0.306
  s357                       8.33       0.00       0.08       1.88       6.41       0.00       6.41        0.00     0.54   0.770
  s358                       8.33       0.00       0.08       1.50       6.58       0.00       6.58        0.00     2.13   0.790
  s359                       8.33       0.00       0.07       2.73       5.49       0.00       5.49        0.00     1.28   0.659
  s360                       8.33       0.00       0.10       0.00       7.95       0.00       7.95        0.00     1.73   0.954
  s361                       8.33       0.00       0.08       1.61       6.42       0.00       6.42        0.00     1.96   0.770
  s362                       8.33       0.00       0.07       2.68       5.41       0.00       5.41        0.00     1.65   0.649
  s363                       8.33       0.00       0.08       1.67       6.37       0.00       6.37        0.00     1.25   0.764
  s364                       8.33       0.00       0.07       3.00       5.13       0.00       5.13        0.00     1.67   0.616
  s365                       8.33       0.00       0.10       0.50       7.35       0.00       7.35        0.00     2.44   0.882
  s366                       8.33       0.00       0.09       1.25       6.70       0.00       6.70        0.00     1.77   0.804
  s367                       8.33       0.00       0.08       1.50       6.54       0.00       6.54        0.00     1.42   0.785
  s368                       8.33       0.00       0.08       2.05       6.02       0.00       6.02        0.00     1.44   0.723
  s369                       8.33       0.00       0.08       1.56       6.42       0.00       6.42        0.00     3.38   0.770
  s370                       8.33       0.00       0.08       1.88       6.40       0.00       6.40        0.00     0.54   0.768
  s371                       8.33       0.00       0.06       3.21       5.06       0.00       5.06        0.00     0.75   0.607
  s372                       8.33       0.00       0.03       6.00       2.34       0.00       2.34        0.00     0.49   0.280
  s373                       8.33       0.00       0.08       1.67       6.50       0.00       6.50        0.00     1.25   0.780
  s374                       8.33       0.00       0.08       1.50       6.71       0.00       6.71        0.00     0.71   0.805
  s375                       8.33       0.00       0.09       1.36       6.69       0.00       6.69        0.00     1.60   0.803
  s376                       8.33       0.00       0.09       0.75       7.36       0.00       7.36        0.00     1.58   0.883
  s377                       8.33       0.00       0.06       3.07       5.13       0.00       5.13        0.00     2.41   0.615
  s378                       8.33       0.00       0.07       2.81       5.19       0.00       5.19        0.01     9.19   0.623
  s379                       8.33       0.00       0.05       4.04       4.11       0.00       4.11        0.01     5.81   0.493
  s380                       8.33       0.00       0.06       3.28       4.96       0.00       4.96        0.00     1.68   0.596
  s381                       8.33       0.00       0.08       1.90       6.00       0.00       6.00        0.01    12.19   0.720
  s382                       8.33       0.00       0.10       0.00       7.96       0.00       7.96        0.00     1.56   0.955
  s383                       8.33       0.00       0.09       0.83       7.14       0.00       7.14        0.00     1.40   0.857
  s384                       8.33       0.00       0.10       0.00       7.90       0.00       7.90        0.00     1.56   0.947
  s385                       8.33       0.00       0.08       1.67       6.32       0.00       6.32        0.00     1.25   0.758
  s386                       8.33       0.00       0.10       0.00       8.07       0.00       8.07        0.00     0.52   0.968
  s387                       8.33       0.00       0.08       2.05       5.95       0.00       5.95        0.00     1.44   0.714
  s388                       8.33       0.00       0.06       3.21       5.00       0.00       5.00        0.00     0.75   0.599
  s389                       8.33       0.00       0.07       2.34       5.69       0.00       5.69        0.00     1.99   0.683
  s390                       8.33       0.00       0.10       0.00       7.95       0.00       7.95        0.00     1.56   0.954
  s391                       8.33       0.00       0.09       0.83       7.26       0.00       7.26        0.00     1.40   0.872
  s392                       8.33       0.00       0.06       3.57       4.56       0.00       4.56        0.00     2.08   0.547
  s393                       8.33       0.00       0.09       1.00       7.02       0.00       7.02        0.00     2.29   0.842
  s394                       8.33       0.00       0.09       0.62       7.39       0.00       7.39        0.00     1.93   0.887
  s395                       8.33       0.00       0.09       0.75       7.21       0.00       7.21        0.00     1.58   0.865
  s396                       8.33       0.00       0.10       0.60       7.25       0.00       7.25        0.00     4.02   0.870
  s397                       8.33       0.00       0.01       7.27       1.06       0.00       1.06        0.00     0.73   0.127
  s398                       8.33       0.00       0.01       7.50       0.83       0.00       0.83        0.00     0.33   0.100
  s399                       8.33       0.00       0.01       7.50       0.83       0.00       0.83        0.00     0.17   0.100
  s400                       8.33       0.00       0.05       4.00       4.28       0.00       4.28        0.00     1.35   0.514
  s401                       8.33       0.00       0.05       4.17       4.11       0.00       4.11        0.00     1.56   0.494
  s402                       8.33       0.00       0.08       2.14       6.15       0.00       6.15        0.00     0.90   0.738
  s403                       8.33       0.00       0.08       1.50       6.59       0.00       6.59        0.00     1.42   0.791
  s404                       8.33       0.00       0.07       2.25       5.90       0.00       5.90        0.00     1.27   0.708
  s405                       8.33       0.00       0.03       5.65       2.56       0.00       2.56        0.01    10.18   0.307
  s406                       8.33       0.00       0.02       6.74       1.58       0.00       1.58        0.00     1.96   0.190
  s407                       8.33       0.00       0.05       3.98       4.06       0.00       4.06        0.01    11.96   0.487
  s408                       8.33       0.00       0.07       2.25       5.93       0.00       5.93        0.00     1.27   0.712
  s409                       8.33       0.00       0.02       6.32       1.98       0.00       1.98        0.00     2.13   0.237
  s410                       8.33       0.00       0.06       3.33       4.85       0.00       4.85        0.00     0.94   0.582
  s411                       8.33       0.00       0.09       1.00       6.88       0.00       6.88        0.00     2.29   0.826
  s412                       8.33       0.00       0.08       2.05       6.03       0.00       6.03        0.00     1.44   0.723
  s413                       8.33       0.00       0.07       2.50       5.64       0.00       5.64        0.00     1.82   0.676
  s414                       8.33       0.00       0.08       1.56       6.55       0.00       6.55        0.00     1.13   0.786
  s415                       8.33       0.00       0.04       5.17       2.97       0.00       2.97        0.02    15.42   0.356
  s416                       8.33       0.00       0.06       3.21       4.96       0.00       4.96        0.00     1.49   0.595
  s417                       8.33       0.00       0.05       4.57       3.62       0.00       3.62        0.00     1.80   0.435
  s418                       8.33       0.00       0.04       5.00       3.25       0.00       3.25        0.00     1.04   0.390
  s419                       8.33       0.00       0.06       3.41       4.72       0.00       4.72        0.00     2.25   0.566
  s420                       8.33       0.00       0.03       5.66       2.58       0.00       2.58        0.00     2.72   0.310
  s421                       8.33       0.00       0.07       3.00       5.02       0.00       5.02        0.01     4.99   0.603
  s422                       8.33       0.00       0.08       1.50       6.56       0.00       6.56        0.00     1.42   0.787
  s423                       8.33       0.00       0.07       2.31       5.63       0.00       5.63        0.01     6.52   0.675
  s424                       8.33       0.00       0.06       3.17       4.69       0.00       4.69        0.07    64.32   0.563
  s425                       8.33       0.00       0.08       2.14       5.96       0.00       5.96        0.00     3.61   0.716
  s426                       8.33       0.00       0.10       0.00       7.83       0.00       7.83        0.01     5.03   0.940
  s427                       8.33       0.00       0.10       0.00       7.83       0.00       7.83        0.01     5.03   0.939
  s428                       8.33       0.00       0.10       0.47       7.41       0.00       7.41        0.00     2.62   0.890
  s429                       8.33       0.00       0.10       0.00       7.94       0.00       7.94        0.00     1.56   0.952
  s430                       8.33       0.00       0.04       5.18       3.01       0.00       3.01        0.00     3.61   0.361
  s431                       8.33       0.00       0.06       3.50       4.67       0.00       4.67        0.00     1.51   0.560
  s432                       8.33       0.00       0.09       0.87       6.87       0.00       6.87        0.03    25.27   0.824
  s433                       8.33       0.00       0.08       1.64       6.50       0.00       6.50        0.01     4.46   0.779
  s434                       8.33       0.00       0.10       0.44       7.23       0.00       7.23        0.02    22.28   0.867
  s435                       8.33       0.00       0.10       0.00       7.96       0.00       7.96        0.00     1.91   0.955
  s436                       8.33       0.00       0.10       0.00       7.90       0.00       7.90        0.00     2.77   0.948
  s437                       8.33       0.00       0.10       0.47       7.12       0.00       7.12        0.05    41.28   0.854
  s438                       8.33       0.00       0.10       0.00       7.85       0.00       7.85        0.00     3.99   0.943
  s439                       8.33       0.00       0.10       0.00       7.88       0.00       7.88        0.00     3.12   0.946
  s440                       8.33       0.00       0.09       0.62       7.52       0.00       7.52        0.00     1.60   0.903
  s441                       8.33       0.00       0.10       0.00       7.88       0.00       7.88        0.00     2.43   0.946
  s442                       8.33       0.00       0.08       2.13       5.71       0.00       5.71        0.01    11.35   0.685
  s443                       8.33       0.00       0.05       4.36       3.75       0.00       3.75        0.01     9.09   0.450
  s444                       8.33       0.00       0.03       5.95       2.24       0.00       2.24        0.01     9.12   0.269
  s445                       8.33       0.00       0.01       7.50       0.83       0.00       0.83        0.00     2.64   0.100
  s446                       8.33       0.00       0.01       7.50       0.83       0.00       0.83        0.00     0.16   0.100
  s447                       8.33       0.00       0.10       0.00       7.62       0.00       7.62        0.01    11.41   0.915
  s448                       8.33       0.00       0.05       4.46       3.66       0.00       3.66        0.00     3.38   0.439
  s449                       8.33       0.00       0.02       6.54       1.75       0.00       1.75        0.01     6.12   0.210
  s450                       8.33       0.00       0.03       5.63       2.68       0.00       2.68        0.00     0.90   0.321
  s451                       8.33       0.00       0.03       6.09       2.23       0.00       2.23        0.00     0.75   0.267
  s452                       8.33       0.00       0.01       7.50       0.83       0.00       0.83        0.00     0.52   0.100
  s453                       8.33       0.00       0.01       7.50       0.83       0.00       0.83        0.00     0.19   0.100
  s454                       8.33       0.00       0.01       7.50       0.83       0.00       0.83        0.00     0.38   0.100
  s455                       8.33       0.00       0.01       7.50       0.83       0.00       0.83        0.00     0.21   0.100
  s456                       8.33       0.00       0.08       2.11       5.83       0.00       5.83        0.00     4.14   0.700
  s457                       8.33       0.00       0.10       0.35       7.35       0.00       7.35        0.02    14.27   0.882
  s458                       8.33       0.00       0.08       2.05       5.86       0.00       5.86        0.01    12.41   0.704
  s459                       8.33       0.00       0.07       2.81       5.43       0.00       5.43        0.00     1.84   0.651
  s460                       8.33       0.00       0.10       0.00       7.80       0.00       7.80        0.01     9.54   0.937
  s461                       8.33       0.00       0.08       1.83       5.93       0.00       5.93        0.05    41.51   0.712
  s462                       8.33       0.00       0.09       0.65       7.29       0.00       7.29        0.00     3.68   0.875
  s463                       8.33       0.00       0.10       0.00       8.00       0.00       8.00        0.00     1.73   0.960
  s464                       8.33       0.00       0.10       0.00       8.01       0.00       8.01        0.00     1.39   0.961
  s465                       8.33       0.00       0.10       0.00       7.97       0.00       7.97        0.00     1.56   0.957
  s466                       8.33       0.00       0.10       0.00       8.15       0.00       8.15        0.00     0.52   0.978
  s467                       8.33       0.00       0.06       3.45       4.47       0.00       4.47        0.03    22.91   0.537
  s468                       8.33       0.00       0.09       1.34       6.25       0.00       6.25        0.07    61.43   0.750
  s469                       8.33       0.00       0.10       0.57       7.17       0.00       7.17        0.01    10.66   0.860
  s470                       8.33       0.00       0.10       0.00       7.75       0.00       7.75        0.00     4.16   0.930
  s471                       8.33       0.00       0.06       3.13       5.15       0.00       5.15        0.00     1.30   0.618
  s472                       8.33       0.00       0.09       0.79       7.25       0.00       7.25        0.00     2.98   0.870
  s473                       8.33       0.00       0.09       1.13       6.94       0.00       6.94        0.00     3.00   0.833
  s474                       8.33       0.00       0.10       0.00       7.87       0.00       7.87        0.00     2.25   0.945
  s475                       8.33       0.00       0.05       4.51       3.48       0.00       3.48        0.04    37.30   0.418
  s476                       8.33       0.00       0.10       0.00       7.84       0.00       7.84        0.00     2.08   0.941
  s477                       8.33       0.00       0.08       1.93       6.08       0.00       6.08        0.01     8.79   0.730
  s478                       8.33       0.00       0.09       1.09       6.63       0.00       6.63        0.01     8.27   0.795
  s479                       8.33       0.00       0.10       0.00       7.69       0.00       7.69        0.01     7.62   0.923
  s480                       8.33       0.00       0.08       1.56       6.46       0.00       6.46        0.00     3.38   0.775
  s481                       8.33       0.00       0.10       0.00       8.08       0.00       8.08        0.00     0.35   0.970
  s482                       8.33       0.00       0.10       0.10       7.53       0.00       7.53        0.01    13.33   0.904
  s483                       8.33       0.00       0.10       0.00       8.02       0.00       8.02        0.00     0.52   0.963
  s484                       8.33       0.00       0.07       2.28       5.75       0.00       5.75        0.00     2.90   0.690
  s485                       8.33       0.00       0.09       0.83       7.09       0.00       7.09        0.00     1.40   0.851
  s486                       8.33       0.00       0.10       0.47       7.27       0.00       7.27        0.01     5.23   0.872
  s487                       8.33       0.00       0.10       0.00       7.76       0.00       7.76        0.01     4.51   0.931
  s488                       8.33       0.00       0.10       0.00       7.92       0.00       7.92        0.00     1.39   0.950
  s489                       8.33       0.00       0.01       7.50       0.83       0.00       0.83        0.00     0.07   0.100
  s490                       8.33       0.00       0.01       7.50       0.83       0.00       0.83        0.00     0.09   0.100
  s491                       8.33       0.00       0.02       6.50       1.81       0.00       1.81        0.00     2.29   0.217
  s492                       8.33       0.00       0.04       5.10       3.14       0.00       3.14        0.01     6.94   0.376
  s493                       8.33       0.00       0.06       3.80       4.24       0.00       4.24        0.02    14.91   0.509
  s494                       8.33       0.00       0.06       3.80       4.29       0.00       4.29        0.02    18.68   0.515
  s495                       8.33       0.00       0.02       6.43       1.91       0.00       1.91        0.00     0.56   0.229
  s496                       8.33       0.00       0.03       6.09       2.24       0.00       2.24        0.00     1.49   0.268
  s497                       8.33       0.00       0.02       6.98       1.36       0.00       1.36        0.00     1.21   0.163
  s498                       8.33       0.00       0.02       6.67       1.67       0.00       1.67        0.00     0.31   0.200
  s499                       8.33       0.00       0.02       6.48       1.86       0.00       1.86        0.00     0.85   0.223
  s500                       8.33       0.00       0.01       7.50       0.83       0.00       0.83        0.00     0.16   0.100
  s501                       8.33       0.00       0.01       7.50       0.83       0.00       0.83        0.00     0.05   0.100
  s502                       8.33       0.00       0.01       7.50       0.83       0.00       0.83        0.00     0.17   0.100
  s503                       8.33       0.00       0.02       6.67       1.67       0.00       1.67        0.00     0.31   0.200
  s504                       8.33       0.00       0.03       6.09       2.24       0.00       2.24        0.00     0.75   0.269
  s505                       8.33       0.00       0.02       6.55       1.72       0.00       1.72        0.01     9.83   0.207
  s506                       8.33       0.00       0.04       5.27       2.91       0.00       2.91        0.03    25.30   0.350
  s507                       8.33       0.00       0.08       2.14       6.00       0.00       6.00        0.00     1.80   0.720
  s508                       8.33       0.00       0.05       4.17       4.12       0.00       4.12        0.00     1.56   0.495
  s509                       8.33       0.00       0.04       4.75       3.53       0.00       3.53        0.00     2.24   0.423
  s510                       8.33       0.00       0.08       2.05       5.99       0.00       5.99        0.00     1.44   0.719
  s511                       8.33       0.00       0.10       0.00       7.79       0.00       7.79        0.00     3.12   0.935
  s512                       8.33       0.00       0.10       0.58       7.31       0.00       7.31        0.00     2.10   0.877
  s513                       8.33       0.00       0.05       4.13       3.94       0.00       3.94        0.01     6.81   0.472
  s514                       8.33       0.00       0.06       3.48       4.58       0.00       4.58        0.00     4.14   0.549
  s515                       8.33       0.00       0.03       6.03       2.19       0.00       2.19        0.01     9.78   0.262
  s516                       8.33       0.00       0.02       6.74       1.54       0.00       1.54        0.01     5.88   0.185
  s517                       8.33       0.00       0.05       4.38       3.67       0.00       3.67        0.03    22.54   0.440
  s518                       8.33       0.00       0.04       5.29       2.98       0.00       2.98        0.00     2.15   0.357
  s519                       8.33       0.00       0.01       7.44       0.89       0.00       0.89        0.00     2.17   0.107
  s520                       8.33       0.00       0.05       3.89       4.05       0.00       4.05        0.04    35.33   0.486
  s521                       8.33       0.00       0.08       1.56       6.26       0.00       6.26        0.01     6.76   0.752
  s522                       8.33       0.00       0.01       7.50       0.83       0.00       0.83        0.00     0.80   0.100
  s523                       8.33       0.00       0.04       5.17       3.04       0.00       3.04        0.00     2.97   0.365
  s524                       8.33       0.00       0.07       2.61       5.24       0.00       5.24        0.10    87.84   0.629
  s525                       8.33       0.00       0.01       7.50       0.83       0.00       0.83        0.00     0.73   0.100
  s526                       8.33       0.00       0.01       7.50       0.83       0.00       0.83        0.00     0.45   0.100
  s527                       8.33       0.00       0.01       7.50       0.83       0.00       0.83        0.00     1.65   0.100
  s528                       8.33       0.00       0.06       3.72       4.37       0.00       4.37        0.02    13.72   0.524
  s529                       8.33       0.00       0.09       1.21       6.63       0.00       6.63        0.01     9.19   0.796
  s530                       8.33       0.00       0.08       1.53       6.38       0.00       6.38        0.01     8.36   0.765
  s531                       8.33       0.00       0.10       0.00       7.67       0.00       7.67        0.00     4.50   0.921
  s532                       8.33       0.00       0.08       1.44       6.51       0.00       6.51        0.00     3.73   0.781
  s533                       8.33       0.00       0.04       4.77       3.53       0.00       3.53        0.00     0.82   0.423
  s534                       8.33       0.00       0.03       5.56       2.67       0.00       2.67        0.00     3.35   0.320
  s535                       8.33       0.00       0.06       3.13       5.11       0.00       5.11        0.00     1.30   0.614
  s536                       8.33       0.00       0.07       2.67       5.31       0.00       5.31        0.01     5.31   0.637
  s537                       8.33       0.00       0.08       1.76       6.37       0.00       6.37        0.00     2.32   0.764
  s538                       8.33       0.00       0.06       3.75       4.59       0.00       4.59        0.00     0.38   0.550
  s539                       8.33       0.00       0.10       0.00       8.17       0.00       8.17        0.00     0.69   0.980
  s540                       8.33       0.00       0.05       4.22       4.02       0.00       4.02        0.00     1.37   0.483
  s541                       8.33       0.00       0.02       6.68       1.63       0.00       1.63        0.00     2.20   0.195
  s542                       8.33       0.00       0.02       6.35       1.98       0.00       1.98        0.00     0.54   0.237
  
  
  ******************
  Node Depth Summary
  ******************
  
  ---------------------------------------------------------------------------------
                                 Average  Maximum  Maximum  Time of Max    Reported
                                   Depth    Depth      HGL   Occurrence   Max Depth
  Node                 Type       Meters   Meters   Meters  days hr:min      Meters
  ---------------------------------------------------------------------------------
  1                    JUNCTION     0.35     0.94    69.11     0  01:25        0.83
  2                    JUNCTION     0.60     0.96    71.00     0  01:22        0.81
  3                    JUNCTION     0.37     0.86    69.60     0  01:22        0.69
  4                    JUNCTION     0.47     1.01    69.33     0  01:24        0.84
  5                    JUNCTION     0.54     0.89    70.99     0  01:22        0.74
  6                    JUNCTION     0.03     0.26    72.14     0  01:20        0.26
  7                    JUNCTION     0.02     0.21    74.65     0  01:20        0.20
  8                    JUNCTION     0.02     0.20    74.57     0  01:20        0.20
  9                    JUNCTION     0.03     0.25    74.81     0  01:20        0.25
  10                   JUNCTION     0.01     0.16    75.25     0  01:21        0.16
  11                   JUNCTION     0.02     0.18    75.59     0  01:20        0.17
  12                   JUNCTION     0.02     0.19    75.51     0  01:21        0.18
  13                   JUNCTION     0.45     0.98    70.73     0  01:21        0.82
  14                   JUNCTION     0.60     0.96    70.41     0  01:29        0.94
  15                   JUNCTION     0.50     0.58    72.37     0  01:21        0.56
  16                   JUNCTION     0.50     0.58    72.33     0  01:21        0.56
  17                   JUNCTION     0.01     0.16    72.71     0  01:20        0.13
  18                   JUNCTION     0.47     1.02    70.71     0  01:21        0.87
  19                   JUNCTION     0.01     0.11    78.74     0  01:19        0.11
  20                   JUNCTION     0.38     0.43    73.36     0  01:21        0.42
  21                   JUNCTION     0.05     1.31    81.00     0  01:12        1.00
  22                   JUNCTION     0.01     0.12    79.21     0  01:20        0.12
  23                   JUNCTION     0.01     0.09    80.07     0  01:20        0.09
  24                   JUNCTION     0.01     0.08    79.10     0  01:20        0.08
  25                   JUNCTION     0.01     0.08    78.39     0  01:20        0.08
  26                   JUNCTION     0.01     0.08    79.32     0  01:20        0.08
  27                   JUNCTION     0.03     0.76    75.31     0  01:13        0.64
  28                   JUNCTION     0.01     0.08    78.25     0  01:20        0.08
  29                   JUNCTION     0.02     0.29    75.05     0  01:20        0.27
  30                   JUNCTION     0.04     1.18    77.09     0  01:19        0.96
  31                   JUNCTION     0.05     1.25    76.94     0  01:19        1.04
  32                   JUNCTION     0.06     1.35    76.46     0  01:19        1.16
  33                   JUNCTION     0.05     1.28    76.85     0  01:19        1.07
  34                   JUNCTION     0.06     1.43    80.50     0  01:12        1.22
  35                   JUNCTION     0.06     1.30    75.81     0  01:10        1.01
[...]
  9642                        0.28      0.28      0.47      0.01         0.01
  8192                        0.01      0.01      0.11      0.01         0.01
  5540                        0.01      0.01      0.01      0.20         0.01
  21911                       0.01      0.01      4.84      0.01         0.01
  9737                        0.25      0.25      0.27      0.24         0.23
  8194                        0.01      0.01      0.01      0.08         0.01
  5618                        0.28      0.28      0.29      0.29         0.27
  8018                        0.06      0.06      0.07      0.01         0.01
  5714                        0.31      0.31      0.36      0.32         0.01
  5802                        4.83      4.83      4.87      0.01         0.01
  8198                        0.01      0.01      0.01      0.27         0.01
  5412                        0.28      0.29      0.28      0.30         0.28
  5604                        0.21      0.21      0.23      0.12         0.12
  8019                        0.01      0.07      0.01      0.16         0.01
  8017                        0.06      0.10      0.06      0.18         0.06
  5745                        0.32      0.32      0.36      0.27         0.27
  7848                        0.29      0.29      0.34      0.19         0.19
  9655                        0.41      0.41      4.93      0.01         0.01
  8021                        0.01      0.01      0.01      0.13         0.01
  5801                        4.78      4.78      4.83      0.01         0.01
  5550                        0.01      0.01      0.01      0.40         0.01
  5726                        0.47      0.47      0.50      0.29         0.01
  9744                        0.24      0.24      0.30      0.01         0.01
  5619                        0.01      0.29      0.01      0.35         0.01
  5741                        0.35      0.41      0.35      0.56         0.35
  5794                        4.75      4.75      4.78      0.01         0.01
  5428                        0.20      0.20      0.21      0.01         0.01
  5720                        0.40      0.40      0.44      0.14         0.01
  5549                        0.01      0.01      0.01      0.28         0.01
  7330                        0.01      0.01      0.01      0.23         0.01
  5426                        0.13      0.13      0.15      0.01         0.01
  5605                        0.23      0.23      0.24      0.23         0.20
  6022                        0.01      0.01      0.14      0.01         0.01
  5744                        0.32      0.35      0.32      0.40         0.32
  9731                        0.28      0.28      0.30      0.26         0.24
  5427                        0.15      0.15      0.21      0.01         0.01
  9732                        0.30      0.30      0.33      0.24         0.23
  9643                        0.47      0.47      1.09      0.01         0.01
  5722                        0.44      0.44      0.47      0.01         0.01
  5538                        0.01      0.19      0.01      0.43         0.01
  5615                        0.24      0.24      0.26      0.19         0.19
  9730                        0.26      0.27      0.28      0.28         0.26
  9646                        1.28      1.28      4.93      0.60         0.01
  5415                        0.25      0.29      0.25      0.32         0.25
  8199                        0.01      0.01      0.01      0.27         0.01
  5411                        0.24      0.25      0.24      0.27         0.24
  6023                        0.01      0.14      0.01      0.27         0.01
  8196                        0.01      0.01      0.01      0.19         0.01
  5414                        0.28      0.28      0.29      0.28         0.27
  6090                        0.01      0.01      0.01      0.19         0.01
  7847                        0.26      0.26      0.29      0.10         0.07
  5416                        0.01      0.25      0.01      0.28         0.01
  5725                        0.31      0.31      0.33      0.01         0.01
  6012                        0.01      0.01      0.01      0.29         0.01
  8020                        0.01      0.01      0.01      0.19         0.01
  8022                        0.01      0.01      0.01      0.18         0.01
  5620                        0.01      0.01      0.01      0.55         0.01
  5717                        0.36      0.36      0.40      0.34         0.01
  5616                        0.26      0.26      0.30      0.20         0.20
  5727                        0.28      0.28      0.30      0.01         0.01
  8197                        0.01      0.01      0.01      0.15         0.01
  6024                        0.01      0.01      0.01      0.07         0.01
  7846                        0.23      0.23      0.26      0.12         0.10
  9743                        0.22      0.22      0.24      0.01         0.01
  5710                        0.28      0.28      0.31      0.36         0.01
  8193                        0.01      0.11      0.01      0.27         0.01
  6029                        0.01      0.01      0.01      0.23         0.01
  5738                        0.50      0.50      0.51      0.29         0.01
  6091                        0.21      0.21      0.23      0.15         0.15
  9727                        0.01      0.01      0.10      0.01         0.01
  5429                        0.20      0.20      0.21      0.01         0.01
  16004                       0.25      0.25      0.32      0.01         0.01
  16197                       0.24      0.24      0.24      0.33         0.23
  18954                       0.36      0.36      0.41      0.01         0.01
  10769                       0.01      0.30      0.01      0.35         0.01
  13070                       0.28      0.28      0.29      0.01         0.01
  16194                       0.24      0.26      0.24      0.29         0.22
  12904                       0.14      0.14      0.15      0.01         0.01
  13069                       0.25      0.25      0.27      0.01         0.01
  11755                       0.55      0.56      0.55      0.70         0.29
  10768                       0.18      0.30      0.18      0.33         0.18
  11913                       0.02      0.07      0.02      0.24         0.02
  13089                       0.32      0.32      0.32      0.37         0.32
  11918                       0.01      0.01      0.01      0.11         0.01
  16517                       0.01      0.01      0.11      0.01         0.01
  11611                       0.36      0.36      0.37      0.27         0.27
  16518                       0.11      0.11      0.20      0.01         0.01
  11951                       0.01      0.01      0.02      0.01         0.01
  11553                       0.01      0.01      0.01      0.33         0.01
  16573                       0.19      0.19      0.22      0.01         0.01
  11886                       0.01      0.01      0.01      0.06         0.01
  12896                       0.22      0.22      0.23      0.01         0.01
  16200                       0.28      0.28      0.29      0.21         0.18
  11545                       0.49      0.49      0.51      0.01         0.01
  10762                       0.28      0.28      0.29      0.26         0.26
  13079                       0.32      0.32      0.33      0.01         0.01
  12905                       0.11      0.11      0.14      0.01         0.01
  16198                       0.24      0.24      0.27      0.01         0.01
  12902                       0.15      0.15      0.22      0.01         0.01
  11544                       0.47      0.47      0.51      0.01         0.01
  13090                       0.30      0.32      0.30      0.36         0.30
  11554                       0.01      0.21      0.01      0.58         0.01
  16195                       0.24      0.24      0.24      0.28         0.20
  13270                       0.24      0.24      0.25      0.24         0.22
  10535                       0.01      0.01      0.18      0.01         0.01
  16561                       0.27      0.27      0.29      0.08         0.01
  18955                       0.41      0.41      0.41      0.77         0.41
  13076                       0.30      0.30      0.32      0.01         0.01
  13268                       0.24      0.24      0.25      0.23         0.23
  11615                       0.09      0.09      0.17      0.01         0.01
  16575                       0.01      0.01      0.01      0.27         0.01
  13273                       0.23      0.23      0.23      0.24         0.23
  13083                       0.33      0.33      0.33      0.36         0.29
  11914                       0.01      0.02      0.01      0.14         0.01
  10766                       0.28      0.31      0.28      0.35         0.28
  13272                       0.23      0.24      0.23      0.39         0.23
  16002                       0.17      0.17      0.19      0.01         0.01
  11891                       0.01      0.01      0.01      0.16         0.01
  10536                       0.18      0.18      0.22      0.01         0.01
  13271                       0.24      0.25      0.24      0.32         0.24
  10767                       0.28      0.28      0.30      0.26         0.26
  10763                       0.28      0.29      0.28      0.33         0.28
  11754                       0.43      0.43      0.56      0.01         0.01
  10537                       0.22      0.22      0.28      0.01         0.01
  10764                       0.27      0.28      0.27      0.31         0.27
  16572                       0.22      0.22      0.25      0.15         0.01
  16520                       0.21      0.21      0.23      0.01         0.01
  16169                       0.08      0.08      0.10      0.01         0.01
  16556                       0.28      0.28      0.31      0.01         0.01
  13277                       0.01      0.19      0.01      0.26         0.01
  11543                       0.39      0.39      0.47      0.01         0.01
  16519                       0.20      0.20      0.21      0.01         0.01
  10761                       0.11      0.11      0.21      0.01         0.01
  12898                       0.25      0.25      0.26      0.01         0.01
  18947                       0.01      0.01      0.01      0.15         0.01
  16205                       0.34      0.34      0.35      0.01         0.01
  12895                       0.13      0.13      0.22      0.01         0.01
  16555                       0.27      0.27      0.28      0.25         0.23
  16522                       0.24      0.24      0.24      0.01         0.03
  11756                       0.55      0.55      0.55      0.54         0.30
  18822                       0.01      0.01      0.01      0.07         0.01
  11565                       0.55      0.56      0.55      0.58         0.55
  11941                       0.01      0.01      0.03      0.01         0.01
  11939                       0.12      0.12      0.22      0.01         0.01
  18821                       0.01      0.01      0.01      0.13         0.01
  16560                       0.29      0.29      0.30      0.26         0.17
  11566                       0.55      0.55      0.55      0.58         0.54
  16202                       0.30      0.30      0.30      0.27         0.18
  16558                       0.31      0.32      0.32      0.33         0.31
  16188                       0.11      0.11      0.15      0.01         0.01
  13274                       0.22      0.23      0.22      0.30         0.22
  10538                       0.28      0.28      0.40      0.01         0.01
  11564                       0.55      0.55      0.56      0.53         0.53
  13075                       0.29      0.29      0.30      0.01         0.01
  11567                       0.15      0.55      0.15      0.64         0.15
  13276                       0.22      0.22      0.22      0.27         0.22
  16559                       0.29      0.32      0.29      0.33         0.29
  18956                       0.41      0.41      0.41      0.40         0.40
  16204                       0.30      0.30      0.30      0.21         0.18
  11604                       0.49      0.49      0.50      0.39         0.40
  10765                       0.24      0.27      0.24      0.33         0.24
  13269                       0.24      0.25      0.24      0.32         0.24
  11570                       0.17      0.17      0.22      0.01         0.01
  10583                       0.01      0.01      0.01      0.21         0.01
  11757                       0.21      0.55      0.21      0.68         0.21
  16192                       0.24      0.24      0.26      0.01         0.01
  11938                       0.11      0.11      0.12      0.01         0.02
  11602                       0.55      0.55      0.55      0.55         0.54
  13066                       0.25      0.25      0.25      0.01         0.01
  11606                       0.43      0.43      0.47      0.01         0.03
  11603                       0.50      0.50      0.54      0.09         0.08
  11607                       0.47      0.47      0.48      0.01         0.08
  18953                       0.39      0.48      0.39      0.51         0.39
  12889                       0.30      0.30      0.39      0.01         0.01
  11916                       0.01      0.01      0.01      0.22         0.01
  16521                       0.23      0.23      0.24      0.01         0.01
  13062                       0.19      0.19      0.21      0.01         0.01
  16189                       0.15      0.15      0.20      0.01         0.01
  11943                       0.03      0.03      0.11      0.01         0.01
  11915                       0.01      0.01      0.01      0.20         0.01
  11556                       0.20      0.20      0.21      0.20         0.18
  18960                       0.35      0.35      0.39      0.01         0.01
  16562                       0.25      0.25      0.27      0.03         0.01
  13065                       0.22      0.22      0.23      0.01         0.01
  11612                       0.36      0.39      0.36      0.46         0.36
  11614                       0.17      0.17      0.29      0.01         0.01
  16163                       0.07      0.07      0.08      0.01         0.01
  10760                       0.01      0.01      0.11      0.01         0.01
  11609                       0.42      0.42      0.43      0.16         0.17
  11917                       0.01      0.01      0.01      0.10         0.01
  12906                       0.08      0.08      0.11      0.01         0.01
  11610                       0.36      0.36      0.42      0.01         0.01
  16199                       0.27      0.27      0.28      0.01         0.01
  11568                       0.01      0.15      0.01      0.32         0.01
  12897                       0.23      0.23      0.25      0.01         0.01
  16523                       0.24      0.24      0.25      0.23         0.21
  16007                       0.20      0.20      0.24      0.01         0.01
  11555                       0.20      0.22      0.20      0.25         0.20
  12888                       0.39      0.39      0.40      0.01         0.07
  11752                       0.34      0.34      0.34      0.16         0.02
  13088                       0.32      0.33      0.32      0.24         0.22
  11753                       0.34      0.34      0.43      0.01         0.01
  10581                       0.01      0.01      0.01      0.18         0.01
  16509                       0.18      0.18      0.31      0.12         0.01
  13275                       0.22      0.22      0.22      0.23         0.22
  18823                       0.01      0.01      0.01      0.17         0.01
  16003                       0.19      0.19      0.25      0.01         0.01
  11940                       0.01      0.01      0.01      0.01         0.01
  13091                       0.26      0.30      0.26      0.34         0.25
  16557                       0.31      0.31      0.32      0.31         0.30
  16008                       0.25      0.25      5.88      0.01         0.01
  11953                       0.03      0.03      0.09      0.01         0.01
  16574                       0.01      0.01      0.12      0.20         0.01
  11912                       0.07      0.09      0.07      0.20         0.07
  16201                       0.29      0.29      0.30      0.22         0.19
  16554                       0.27      0.27      0.27      0.29         0.19
  16191                       0.23      0.23      0.24      0.01         0.01
  11952                       0.02      0.02      0.03      0.01         0.01
  11605                       0.48      0.48      0.49      0.38         0.37
  13080                       0.33      0.33      0.33      0.21         0.18
  22272                       0.01      0.01      0.55      0.01         0.01
  22703                       0.23      0.23      0.24      0.22         0.22
  24938                       0.07      0.07      0.11      0.01         0.01
  26443                       0.01      0.01      4.94      0.01         0.01
  26757                       0.33      0.34      0.39      0.27         0.22
  24941                       0.04      0.04      0.04      0.20         0.04
  22701                       0.24      0.24      0.30      0.01         0.01
  21783                       0.01      0.02      0.01      5.02         0.01
  26747                       0.14      0.14      0.16      0.01         0.01
  22273                       0.34      0.34      0.41      0.01         0.01
  26444                       0.01      0.01      0.26      0.01         0.01
  26750                       0.01      0.20      0.01      0.22         0.01
  21910                       0.01      0.01      4.84      0.01         0.01
  21925                       0.01      0.01      5.00      0.01         0.01
  24940                       0.03      0.03      0.03      0.13         0.02
  26746                       0.16      0.16      0.23      0.16         0.12
  24942                       0.04      0.04      0.07      0.03         0.01
  26442                       0.01      0.01      4.94      0.01         0.01
  26753                       0.39      0.39      0.50      0.21         0.19
  24933                       0.19      0.23      0.19      0.26         0.19
  26756                       0.40      0.40      0.44      0.56         0.01
  22702                       0.30      0.30      0.30      0.29         0.26
  21797                       0.01      0.01      0.01      0.36         0.01
  25655                       0.01      0.01      0.02      0.01         0.01
  26749                       0.01      0.01      0.13      0.10         0.01
  22704                       0.30      0.30      0.34      0.01         0.01
  10521                       0.44      0.45      0.81      0.34         0.31
  16011                       5.92      5.92      5.93      0.42         0.40
  29722                       0.39      0.48      0.39      0.53         0.39
  26470                       0.46      0.46      0.52      0.41         0.40
  1                           0.01      0.01      0.01      5.32         0.01
  

  Analysis begun on:  Tue Feb 11 10:59:53 2020
  Analysis ended on:  Tue Feb 11 11:02:31 2020
  Total elapsed time: 00:02:38