
  EPA STORM WATER MANAGEMENT MODEL - VERSION 5.1 (Build 5.3.0.dev0)
  --------------------------------------------------------------

  
  *********************************************************
  NOTE: The summary statistics displayed in this report are
  based on results found at every computational time step,  
  not just on results from each reporting time step.
  *********************************************************
  
  ****************
  Analysis Options
  ****************
  Flow Units ............... CMS
  Process Models:
    Rainfall/Runoff ........ YES
    RDII ................... NO
    Snowmelt ............... NO
    Groundwater ............ NO
    Flow Routing ........... YES
    Ponding Allowed ........ YES
    Water Quality .......... NO
  Infiltration Method ...... HORTON
  Flow Routing Method ...... DYNWAVE
  Surcharge Method ......... EXTRAN
  Starting Date ............ 05/01/2000 00:00:00
  Ending Date .............. 08/15/2000 23:55:00
  Antecedent Dry Days ...... 0.0
  Report Time Step ......... 00:05:00
  Wet Time Step ............ 00:05:00
  Dry Time Step ............ 00:05:00
  Routing Time Step ........ 30.00 sec
  Variable Time Step ....... YES
  Maximum Trials ........... 8
  Number of Threads ........ 1
  Head Tolerance ........... 0.001500 m
  
  
  **************************        Volume         Depth
  Runoff Quantity Continuity     hectare-m            mm
  **************************     ---------       -------
  Total Precipitation ......         4.299        23.858
  Evaporation Loss .........         0.000         0.000
  Infiltration Loss ........         0.000         0.000
  Surface Runoff ...........         4.277        23.734
  Final Storage ............         0.028         0.153
  Continuity Error (%) .....        -0.120
  
  
  **************************        Volume        Volume
  Flow Routing Continuity        hectare-m      10^6 ltr
  **************************     ---------     ---------
  Dry Weather Inflow .......         7.231        72.307
  Wet Weather Inflow .......         4.275        42.755
  Groundwater Inflow .......         0.000         0.000
  RDII Inflow ..............         0.000         0.000
  External Inflow ..........         0.000         0.000
  External Outflow .........         9.862        98.625
  Flooding Loss ............         1.355        13.553
  Evaporation Loss .........         0.000         0.000
  Exfiltration Loss ........         0.000         0.000
  Initial Stored Volume ....         0.000         0.000
  Final Stored Volume ......         0.291         2.913
  Continuity Error (%) .....        -0.025
  
  
  *************************
  Highest Continuity Errors
  *************************
  Node T2 (3.05%)
  
  
  ***************************
  Time-Step Critical Elements
  ***************************
  Link C15 (6.25%)
  
  
  ********************************
  Highest Flow Instability Indexes
  ********************************
  Link V6 (1)
  
  
  *************************
  Routing Time Step Summary
  *************************
  Minimum Time Step           :     0.03 sec
  Average Time Step           :    29.56 sec
  Maximum Time Step           :    30.00 sec
  Percent in Steady State     :     0.00
  Average Iterations per Step :     2.00
  Percent Not Converging      :     0.00
  
  
  ***************************
  Subcatchment Runoff Summary
  ***************************
  
  ------------------------------------------------------------------------------------------------------------------------------
                            Total      Total      Total      Total     Imperv       Perv      Total       Total     Peak  Runoff
                           Precip      Runon       Evap      Infil     Runoff     Runoff     Runoff      Runoff   Runoff   Coeff
  Subcatchment                 mm         mm         mm         mm         mm         mm         mm    10^6 ltr      CMS
  ------------------------------------------------------------------------------------------------------------------------------
  SC01                      24.33       0.00       0.00       0.00      24.31       0.00      24.31        8.02     0.31   0.999
  SC02                      22.02       0.00       0.00       0.00      21.68       0.00      21.68        4.93     0.18   0.984
  SC03                      23.55       0.00       0.00       0.00      23.48       0.00      23.48        4.23     0.14   0.997
  SC04                      22.02       0.00       0.00       0.00      21.51       0.00      21.51        1.48     0.05   0.977
  SC05                      24.33       0.00       0.00       0.00      24.31       0.00      24.31        3.79     0.14   0.999
  SC06                      25.10       0.00       0.00       0.00      25.02       0.00      25.02        8.14     0.25   0.997
  SC07                      22.02       0.00       0.00       0.00      21.51       0.00      21.51        1.02     0.03   0.977
  SC08                      23.55       0.00       0.00       0.00      23.44       0.00      23.44        6.56     0.20   0.995
  SC09                      25.10       0.00       0.00       0.00      25.05       0.00      25.05        1.73     0.06   0.998
  SC010                     24.33       0.00       0.00       0.00      24.29       0.00      24.29        2.85     0.10   0.999
  
  
  ******************
  Node Depth Summary
  ******************
  
  ---------------------------------------------------------------------------------
                                 Average  Maximum  Maximum  Time of Max    Reported
                                   Depth    Depth      HGL   Occurrence   Max Depth
  Node                 Type       Meters   Meters   Meters  days hr:min      Meters
  ---------------------------------------------------------------------------------
  J1                   JUNCTION     0.04     0.13    34.13     7  18:45        0.13
  J3                   JUNCTION     0.09     0.14    18.14     7  19:30        0.14
  CSO7                 JUNCTION     0.06     0.15    34.15     7  20:55        0.15
  J5                   JUNCTION     0.04     0.10    32.10     7  20:56        0.10
  CSO9                 JUNCTION     0.06     0.22    40.22     7  18:40        0.22
  J8                   JUNCTION     0.06     0.19    36.19     7  18:40        0.19
  CSO8                 JUNCTION     0.05     0.28    32.28     7  17:10        0.28
  J10                  JUNCTION     0.05     0.18    29.18     7  17:12        0.18
  J13                  JUNCTION     0.03     0.12    29.12     7  20:55        0.12
  J15                  JUNCTION     0.12     0.27    15.27     7  18:47        0.27
  J16                  JUNCTION     0.04     0.14    30.14     7  20:41        0.14
  CSO10                JUNCTION     0.06     0.27    30.27     7  18:45        0.27
  J12                  JUNCTION     0.12     1.02    27.02     7  16:42        1.01
  J4                   JUNCTION     0.07     0.18    33.18     7  20:57        0.18
  J6                   JUNCTION     0.05     0.07    25.07     7  21:17        0.07
  J2                   JUNCTION     0.05     0.08    25.08     7  19:10        0.08
  J19                  JUNCTION     0.11     0.17     8.17     7  15:42        0.17
  J9                   JUNCTION     0.07     0.21    29.21     7  17:30        0.21
  J14                  JUNCTION     0.10     0.15    20.15     7  16:39        0.15
  J17                  JUNCTION     0.05     0.08    20.08     7  19:03        0.08
  J7                   JUNCTION     0.05     0.16    39.16     7  18:41        0.16
  J11                  JUNCTION     0.04     0.20    31.20     7  17:11        0.20
  J18                  JUNCTION     0.03     0.12    29.12     7  18:46        0.12
  Out_to_WWTP          OUTFALL      0.11     0.17     6.17     7  22:15        0.17
  T5                   STORAGE      1.03     5.00    32.00     7  16:46        5.00
  T4                   STORAGE      1.06     5.00    32.00     7  17:50        5.00
  T6                   STORAGE      0.12     0.93    31.93     7  17:27        0.93
  T3                   STORAGE      1.29     5.00    27.00     7  16:38        5.00
  T2                   STORAGE      1.17     5.00    26.00     7  18:12        5.00
  T1                   STORAGE      1.28     5.00    15.00     7  15:41        5.00
  
  
  *******************
  Node Inflow Summary
  *******************
  
  -------------------------------------------------------------------------------------------------
                                  Maximum  Maximum                  Lateral       Total        Flow
                                  Lateral    Total  Time of Max      Inflow      Inflow     Balance
                                   Inflow   Inflow   Occurrence      Volume      Volume       Error
  Node                 Type           CMS      CMS  days hr:min    10^6 ltr    10^6 ltr     Percent
  -------------------------------------------------------------------------------------------------
  J1                   JUNCTION     0.154    0.154     7  20:40        14.2        14.2      -0.019
  J3                   JUNCTION     0.000    0.191     7  18:01           0        68.3       0.034
  CSO7                 JUNCTION     0.040    0.040     7  20:55        6.41        6.41       0.012
  J5                   JUNCTION     0.051    0.089     7  20:55        3.85        10.3       0.016
  CSO9                 JUNCTION     0.062    0.062     7  18:40        5.37        5.37       0.008
  J8                   JUNCTION     0.277    0.338     7  18:40        25.6          31       0.022
  CSO8                 JUNCTION     0.207    0.207     7  17:10        10.8        10.8      -0.001
  J10                  JUNCTION     0.147    0.343     7  17:10        11.4        22.2       0.001
  J13                  JUNCTION     0.188    0.188     7  20:55        13.6        13.6      -0.012
  J15                  JUNCTION     0.000    0.639     7  18:46           0         104       0.059
  J16                  JUNCTION     0.318    0.318     7  20:40        18.3        18.3      -0.002
  CSO10                JUNCTION     0.105    0.105     7  18:45        5.44        5.44       0.007
  J12                  JUNCTION     0.000    0.632     7  17:13           0        53.2       0.035
  J4                   JUNCTION     0.000    0.040     7  20:55           0        6.41       0.092
  J6                   JUNCTION     0.000    0.028     7  17:51           0        9.53       0.027
  J2                   JUNCTION     0.000    0.039     7  16:46           0          13       0.023
  J19                  JUNCTION     0.000    0.271     7  15:41           0        98.6       0.008
  J9                   JUNCTION     0.000    0.304     7  17:27           0        30.9      -0.007
  J14                  JUNCTION     0.000    0.124     7  16:38           0        45.9       0.010
  J17                  JUNCTION     0.000    0.033     7  18:12           0        11.7       0.041
  J7                   JUNCTION     0.000    0.062     7  18:40           0        5.37       0.082
  J11                  JUNCTION     0.000    0.206     7  17:10           0        10.8       0.077
  J18                  JUNCTION     0.000    0.104     7  18:45           0        5.44       0.021
  Out_to_WWTP          OUTFALL      0.000    0.271     7  15:42           0        98.6       0.000
  T5                   STORAGE      0.000    0.153     7  18:45           0        14.2       0.839
  T4                   STORAGE      0.000    0.088     7  20:56           0        10.3       0.999
  T6                   STORAGE      0.000    0.337     7  18:40           0          31       0.051
  T3                   STORAGE      0.000    0.703     7  17:11           0        53.2       0.726
  T2                   STORAGE      0.000    0.185     7  20:55           0        13.6       3.149
  T1                   STORAGE      0.000    0.625     7  18:47           0         104       0.228
  
  
  **********************
  Node Surcharge Summary
  **********************
  
  No nodes were surcharged.
  
  
  *********************
  Node Flooding Summary
  *********************
  
  Flooding refers to all water that overflows a node, whether it ponds or not.
  --------------------------------------------------------------------------
                                                             Total   Maximum
                                 Maximum   Time of Max       Flood    Ponded
                        Hours       Rate    Occurrence      Volume     Depth
  Node                 Flooded       CMS   days hr:min    10^6 ltr    Meters
  --------------------------------------------------------------------------
  T5                      4.69     0.114      7  18:46       1.051     0.000
  T4                      3.94     0.060      7  20:56       0.497     0.000
  T3                      5.17     0.579      7  17:11       6.258     0.000
  T2                      3.48     0.151      7  20:56       1.042     0.000
  T1                      6.32     0.355      7  18:48       4.701     0.000
  
  
  **********************
  Storage Volume Summary
  **********************
  
  --------------------------------------------------------------------------------------------------
                         Average     Avg  Evap Exfil       Maximum     Max    Time of Max    Maximum
                          Volume    Pcnt  Pcnt  Pcnt        Volume    Pcnt     Occurrence    Outflow
  Storage Unit           1000 m3    Full  Loss  Loss       1000 m3    Full    days hr:min        CMS
  --------------------------------------------------------------------------------------------------
  T5                       0.103      21     0     0         0.500     100       7  16:46      0.039
  T4                       0.106      21     0     0         0.500     100       7  17:50      0.028
  T6                       0.014       2     0     0         0.112      19       7  17:27      0.304
  T3                       0.671      26     0     0         2.600     100       7  16:38      0.124
  T2                       0.234      23     0     0         1.000     100       7  18:12      0.033
  T1                       0.179      26     0     0         0.700     100       7  15:41      0.271
  
  
  ***********************
  Outfall Loading Summary
  ***********************
  
  -----------------------------------------------------------
                         Flow       Avg       Max       Total
                         Freq      Flow      Flow      Volume
  Outfall Node           Pcnt       CMS       CMS    10^6 ltr
  -----------------------------------------------------------
  Out_to_WWTP           99.93     0.122     0.271      98.625
  -----------------------------------------------------------
  System                99.93     0.122     0.271      98.625
  
  
  ********************
  Link Flow Summary
  ********************
  
  -----------------------------------------------------------------------------
                                 Maximum  Time of Max   Maximum    Max/    Max/
                                  |Flow|   Occurrence   |Veloc|    Full    Full
  Link                 Type          CMS  days hr:min     m/sec    Flow   Depth
  -----------------------------------------------------------------------------
  C1                   CONDUIT     0.039     7  17:28      0.87    0.01    0.11
  C6                   CONDUIT     0.038     7  20:57      1.17    0.61    0.47
  C2                   CONDUIT     0.028     7  18:27      0.84    0.03    0.18
  C9                   CONDUIT     0.062     7  18:41      1.02    0.21    0.35
  C16                  CONDUIT     0.204     7  17:12      1.36    0.02    0.09
  C3                   CONDUIT     0.124     7  16:40      1.79    0.05    0.14
  C19                  CONDUIT     0.033     7  19:03      0.62    0.01    0.17
  C11                  CONDUIT     0.191     7  18:40      1.73    0.01    0.10
  C20                  CONDUIT     0.315     7  20:41      1.93    0.01    0.10
  C22                  CONDUIT     0.103     7  18:46      1.11    0.05    0.24
  C12                  CONDUIT     0.303     7  17:30      1.32    0.02    0.30
  C17                  CONDUIT     0.341     7  17:12      1.60    0.02    0.30
  C10                  CONDUIT     0.337     7  18:40      2.35    0.03    0.37
  C13                  CONDUIT     0.703     7  17:11      0.93    0.04    0.75
  C18                  CONDUIT     0.185     7  20:55      1.00    0.01    0.53
  C23                  CONDUIT     0.625     7  18:47      0.93    0.07    0.59
  C4                   CONDUIT     0.153     7  18:45      1.11    0.04    0.57
  C7                   CONDUIT     0.088     7  20:56      0.83    0.02    0.55
  C14                  CONDUIT     0.271     7  15:42      2.08    0.02    0.09
  C5                   CONDUIT     0.040     7  20:55      1.24    0.68    0.66
  C8                   CONDUIT     0.062     7  18:40      1.74    0.78    0.59
  C15                  CONDUIT     0.206     7  17:10      2.42    0.66    0.52
  C21                  CONDUIT     0.104     7  18:45      1.64    0.60    0.44
  V4                   ORIFICE     0.028     7  17:51                      1.00
  V5                   ORIFICE     0.039     7  16:46                      1.00
  V1                   ORIFICE     0.271     7  15:41                      1.00
  V6                   ORIFICE     0.304     7  17:27                      1.00
  V3                   ORIFICE     0.124     7  16:38                      1.00
  V2                   ORIFICE     0.033     7  18:12                      1.00
  
  
  ***************************
  Flow Classification Summary
  ***************************
  
  -------------------------------------------------------------------------------------
                      Adjusted    ---------- Fraction of Time in Flow Class ---------- 
                       /Actual         Up    Down  Sub   Sup   Up    Down  Norm  Inlet 
  Conduit               Length    Dry  Dry   Dry   Crit  Crit  Crit  Crit  Ltd   Ctrl  
  -------------------------------------------------------------------------------------
  C1                      1.00   0.00  0.00  0.00  0.92  0.08  0.00  0.00  1.00  0.00
  C6                      1.00   0.00  0.00  0.00  0.00  1.00  0.00  0.00  0.00  0.00
  C2                      1.00   0.00  0.00  0.00  0.99  0.01  0.00  0.00  1.00  0.00
  C9                      1.00   0.00  0.00  0.00  1.00  0.00  0.00  0.00  1.00  0.00
  C16                     1.00   0.00  0.01  0.00  0.85  0.13  0.00  0.00  0.76  0.00
  C3                      1.00   0.00  0.00  0.00  0.00  1.00  0.00  0.00  0.02  0.00
  C19                     1.00   0.00  0.00  0.00  1.00  0.00  0.00  0.00  1.00  0.00
  C11                     1.00   0.00  0.00  0.00  0.01  0.99  0.00  0.00  1.00  0.00
  C20                     1.00   0.00  0.00  0.00  0.93  0.07  0.00  0.00  1.00  0.00
  C22                     1.00   0.00  0.00  0.00  1.00  0.00  0.00  0.00  1.00  0.00
  C12                     1.00   0.00  0.00  0.00  0.11  0.89  0.00  0.00  0.88  0.00
  C17                     1.00   0.00  0.00  0.00  0.56  0.44  0.00  0.00  1.00  0.00
  C10                     1.00   0.00  0.00  0.00  0.13  0.87  0.00  0.00  1.00  0.00
  C13                     1.00   0.00  0.00  0.00  0.98  0.02  0.00  0.00  0.94  0.00
  C18                     1.00   0.00  0.00  0.00  0.98  0.02  0.00  0.00  1.00  0.00
  C23                     1.00   0.00  0.00  0.00  0.98  0.02  0.00  0.00  1.00  0.00
  C4                      1.00   0.00  0.00  0.00  0.99  0.01  0.00  0.00  1.00  0.00
  C7                      1.00   0.00  0.00  0.00  0.98  0.02  0.00  0.00  1.00  0.00
  C14                     1.00   0.00  0.00  0.00  0.00  1.00  0.00  0.00  0.80  0.00
  C5                      1.00   0.00  0.00  0.00  0.97  0.03  0.00  0.00  1.00  0.00
  C8                      1.00   0.00  0.00  0.00  0.23  0.77  0.00  0.00  0.00  0.00
  C15                     1.00   0.01  0.00  0.00  0.02  0.97  0.00  0.00  0.02  0.00
  C21                     1.00   0.00  0.00  0.00  0.00  1.00  0.00  0.00  0.00  0.00
  
  
  *************************
  Conduit Surcharge Summary
  *************************
  
  ----------------------------------------------------------------------------
                                                           Hours        Hours 
                         --------- Hours Full --------   Above Full   Capacity
  Conduit                Both Ends  Upstream  Dnstream   Normal Flow   Limited
  ----------------------------------------------------------------------------
  C13                         0.01      0.01     38.51      0.01         0.01
  C18                         0.01      0.01     40.94      0.01         0.01
  C23                         0.01      0.01     42.70      0.01         0.01
  C4                          0.01      0.01     68.25      0.01         0.01
  C7                          0.01      0.01     72.99      0.01         0.01
  

  Analysis begun on:  Wed Dec 18 15:39:55 2019
  Analysis ended on:  Wed Dec 18 15:40:09 2019
  Total elapsed time: 00:00:14