
  EPA STORM WATER MANAGEMENT MODEL - VERSION 5.1 (Build 5.3.0.dev0)
  --------------------------------------------------------------

  
  *********************************************************
  NOTE: The summary statistics displayed in this report are
  based on results found at every computational time step,  
  not just on results from each reporting time step.
  *********************************************************
  
  ****************
  Analysis Options
  ****************
  Flow Units ............... CMS
  Process Models:
    Rainfall/Runoff ........ YES
    RDII ................... NO
    Snowmelt ............... NO
    Groundwater ............ NO
    Flow Routing ........... YES
    Ponding Allowed ........ YES
    Water Quality .......... NO
  Infiltration Method ...... HORTON
  Flow Routing Method ...... DYNWAVE
  Surcharge Method ......... EXTRAN
  Starting Date ............ 05/01/2000 00:00:00
  Ending Date .............. 05/15/2000 23:55:00
  Antecedent Dry Days ...... 0.0
  Report Time Step ......... 00:05:00
  Wet Time Step ............ 00:05:00
  Dry Time Step ............ 00:05:00
  Routing Time Step ........ 30.00 sec
  Variable Time Step ....... YES
  Maximum Trials ........... 8
  Number of Threads ........ 1
  Head Tolerance ........... 0.001500 m
  
  
  **************************        Volume         Depth
  Runoff Quantity Continuity     hectare-m            mm
  **************************     ---------       -------
  Total Precipitation ......         5.977        33.168
  Evaporation Loss .........         0.000         0.000
  Infiltration Loss ........         0.000         0.000
  Surface Runoff ...........         5.975        33.159
  Final Storage ............         0.009         0.051
  Continuity Error (%) .....        -0.126
  
  
  **************************        Volume        Volume
  Flow Routing Continuity        hectare-m      10^6 ltr
  **************************     ---------     ---------
  Dry Weather Inflow .......        11.393       113.927
  Wet Weather Inflow .......         5.976        59.757
  Groundwater Inflow .......         0.000         0.000
  RDII Inflow ..............         0.000         0.000
  External Inflow ..........         0.000         0.000
  External Outflow .........        15.938       159.384
  Flooding Loss ............         1.341        13.407
  Evaporation Loss .........         0.000         0.000
  Exfiltration Loss ........         0.000         0.000
  Initial Stored Volume ....         0.000         0.000
  Final Stored Volume ......         0.097         0.968
  Continuity Error (%) .....        -0.043
  
  
  ***************************
  Time-Step Critical Elements
  ***************************
  Link C15 (5.23%)
  
  
  ********************************
  Highest Flow Instability Indexes
  ********************************
  Link C13 (1)
  
  
  *************************
  Routing Time Step Summary
  *************************
  Minimum Time Step           :     0.03 sec
  Average Time Step           :    29.64 sec
  Maximum Time Step           :    30.00 sec
  Percent in Steady State     :     0.00
  Average Iterations per Step :     2.00
  Percent Not Converging      :     0.00
  
  
  ***************************
  Subcatchment Runoff Summary
  ***************************
  
  ------------------------------------------------------------------------------------------------------------------------------
                            Total      Total      Total      Total     Imperv       Perv      Total       Total     Peak  Runoff
                           Precip      Runon       Evap      Infil     Runoff     Runoff     Runoff      Runoff   Runoff   Coeff
  Subcatchment                 mm         mm         mm         mm         mm         mm         mm    10^6 ltr      CMS
  ------------------------------------------------------------------------------------------------------------------------------
  SC01                      33.01       0.00       0.00       0.00      33.01       0.00      33.01       10.89     0.35   1.000
  SC02                      30.95       0.00       0.00       0.00      30.95       0.00      30.95        7.04     0.22   1.000
  SC03                      31.62       0.00       0.00       0.00      31.65       0.00      31.65        5.70     0.15   1.001
  SC04                      30.95       0.00       0.00       0.00      30.92       0.00      30.92        2.13     0.05   0.999
  SC05                      33.01       0.00       0.00       0.00      33.01       0.00      33.01        5.15     0.16   1.000
  SC06                      37.15       0.00       0.00       0.00      37.12       0.00      37.12       12.08     0.26   0.999
  SC07                      30.95       0.00       0.00       0.00      30.92       0.00      30.92        1.47     0.03   0.999
  SC08                      31.62       0.00       0.00       0.00      31.60       0.00      31.60        8.85     0.20   0.999
  SC09                      37.15       0.00       0.00       0.00      37.13       0.00      37.13        2.56     0.08   0.999
  SC010                     33.01       0.00       0.00       0.00      33.00       0.00      33.00        3.88     0.11   1.000
  
  
  ******************
  Node Depth Summary
  ******************
  
  ---------------------------------------------------------------------------------
                                 Average  Maximum  Maximum  Time of Max    Reported
                                   Depth    Depth      HGL   Occurrence   Max Depth
  Node                 Type       Meters   Meters   Meters  days hr:min      Meters
  ---------------------------------------------------------------------------------
  J1                   JUNCTION     0.04     0.14    34.14    10  01:06        0.13
  J3                   JUNCTION     0.09     0.14    18.14     7  21:09        0.14
  CSO7                 JUNCTION     0.06     0.15    34.15     7  20:55        0.15
  J5                   JUNCTION     0.04     0.10    32.10     7  20:56        0.10
  CSO9                 JUNCTION     0.06     0.29    40.29     9  16:21        0.27
  J8                   JUNCTION     0.06     0.20    36.20     9  16:24        0.20
  CSO8                 JUNCTION     0.05     0.28    32.28     7  17:10        0.28
  J10                  JUNCTION     0.05     0.18    29.18     9  19:33        0.18
  J13                  JUNCTION     0.03     0.13    29.13     9  16:35        0.13
  J15                  JUNCTION     0.12     0.27    15.27    10  01:11        0.27
  J16                  JUNCTION     0.03     0.15    30.15    10  01:06        0.15
  CSO10                JUNCTION     0.05     0.28    30.28    10  01:06        0.28
  J12                  JUNCTION     0.13     1.01    27.01     7  17:46        1.01
  J4                   JUNCTION     0.07     0.18    33.18     7  20:57        0.18
  J6                   JUNCTION     0.05     0.07    25.07     7  18:27        0.07
  J2                   JUNCTION     0.05     0.08    25.08     7  20:15        0.08
  J19                  JUNCTION     0.12     0.17     8.17    10  01:03        0.17
  J9                   JUNCTION     0.07     0.30    29.30     7  22:15        0.29
  J14                  JUNCTION     0.10     0.15    20.15    10  03:08        0.15
  J17                  JUNCTION     0.05     0.08    20.08     7  19:03        0.08
  J7                   JUNCTION     0.05     0.17    39.17     9  16:25        0.17
  J11                  JUNCTION     0.04     0.20    31.20     7  17:11        0.20
  J18                  JUNCTION     0.03     0.12    29.12    10  01:08        0.12
  Out_to_WWTP          OUTFALL      0.12     0.17     6.17    10  02:41        0.17
  T5                   STORAGE      1.02     5.00    32.00     7  16:46        5.00
  T4                   STORAGE      1.07     5.00    32.00     7  17:50        5.00
  T6                   STORAGE      0.23     5.00    36.00     7  17:38        5.00
  T3                   STORAGE      1.41     5.00    27.00     7  16:46        5.00
  T2                   STORAGE      1.29     5.00    26.00     7  18:12        5.00
  T1                   STORAGE      1.34     5.00    15.00     7  15:41        5.00
  
  
  *******************
  Node Inflow Summary
  *******************
  
  -------------------------------------------------------------------------------------------------
                                  Maximum  Maximum                  Lateral       Total        Flow
                                  Lateral    Total  Time of Max      Inflow      Inflow     Balance
                                   Inflow   Inflow   Occurrence      Volume      Volume       Error
  Node                 Type           CMS      CMS  days hr:min    10^6 ltr    10^6 ltr     Percent
  -------------------------------------------------------------------------------------------------
  J1                   JUNCTION     0.164    0.164    10  01:05        21.6        21.6      -0.043
  J3                   JUNCTION     0.000    0.191     7  19:38           0         111       0.016
  CSO7                 JUNCTION     0.040    0.040     7  20:55        9.97        9.97       0.001
  J5                   JUNCTION     0.051    0.089     7  20:55        5.87        15.8      -0.030
  CSO9                 JUNCTION     0.081    0.081     9  16:20         8.3         8.3      -0.004
  J8                   JUNCTION     0.287    0.355     9  16:23        39.6        47.9      -0.026
  CSO8                 JUNCTION     0.207    0.207     7  17:10        15.6        15.6      -0.007
  J10                  JUNCTION     0.157    0.347     9  19:31          17        32.5      -0.033
  J13                  JUNCTION     0.235    0.235     9  16:35        20.7        20.7      -0.055
  J15                  JUNCTION     0.000    0.661    10  01:06           0         165       0.023
  J16                  JUNCTION     0.352    0.352    10  01:05        27.1        27.1      -0.022
  CSO10                JUNCTION     0.114    0.114    10  01:05        7.95        7.95      -0.002
  J12                  JUNCTION     0.000    0.635     7  22:15           0        77.9      -0.020
  J4                   JUNCTION     0.000    0.040     7  20:55           0        9.97       0.010
  J6                   JUNCTION     0.000    0.028     7  17:51           0        15.3       0.012
  J2                   JUNCTION     0.000    0.039     7  16:46           0        20.5       0.009
  J19                  JUNCTION     0.000    0.271     7  15:41           0         159       0.003
  J9                   JUNCTION     0.000    0.743     7  22:11           0        44.7      -0.020
  J14                  JUNCTION     0.000    0.124     7  16:47           0          75       0.004
  J17                  JUNCTION     0.000    0.033     7  18:12           0        19.5       0.017
  J7                   JUNCTION     0.000    0.078     9  16:22           0         8.3       0.018
  J11                  JUNCTION     0.000    0.206     7  17:10           0        15.6       0.022
  J18                  JUNCTION     0.000    0.114    10  01:06           0        7.95      -0.018
  Out_to_WWTP          OUTFALL      0.000    0.271    10  01:04           0         159       0.000
  T5                   STORAGE      0.000    0.163    10  01:06           0        21.6       0.202
  T4                   STORAGE      0.000    0.088     7  20:56           0        15.8       0.257
  T6                   STORAGE      0.000    0.354     9  16:25           0        47.9       0.023
  T3                   STORAGE      0.000    0.523     7  23:30           0        77.9       0.173
  T2                   STORAGE      0.000    0.230     9  16:36           0        20.7       0.397
  T1                   STORAGE      0.000    0.648    10  01:11           0         165       0.043
  
  
  **********************
  Node Surcharge Summary
  **********************
  
  No nodes were surcharged.
  
  
  *********************
  Node Flooding Summary
  *********************
  
  Flooding refers to all water that overflows a node, whether it ponds or not.
  --------------------------------------------------------------------------
                                                             Total   Maximum
                                 Maximum   Time of Max       Flood    Ponded
                        Hours       Rate    Occurrence      Volume     Depth
  Node                 Flooded       CMS   days hr:min    10^6 ltr    Meters
  --------------------------------------------------------------------------
  T5                      4.69     0.114      7  18:46       1.051     0.000
  T4                      3.94     0.060      7  20:56       0.497     0.000
  T6                      4.54     0.337      7  18:41       3.253     0.000
  T3                      3.93     0.271      7  17:10       1.840     0.000
  T2                      3.48     0.151      7  20:56       1.042     0.000
  T1                      7.73     0.377     10  01:12       5.720     0.000
  
  
  **********************
  Storage Volume Summary
  **********************
  
  --------------------------------------------------------------------------------------------------
                         Average     Avg  Evap Exfil       Maximum     Max    Time of Max    Maximum
                          Volume    Pcnt  Pcnt  Pcnt        Volume    Pcnt     Occurrence    Outflow
  Storage Unit           1000 m3    Full  Loss  Loss       1000 m3    Full    days hr:min        CMS
  --------------------------------------------------------------------------------------------------
  T5                       0.102      20     0     0         0.500     100       7  16:46      0.039
  T4                       0.107      21     0     0         0.500     100       7  17:50      0.028
  T6                       0.027       5     0     0         0.600     100       7  17:38      0.743
  T3                       0.735      28     0     0         2.600     100       7  16:46      0.370
  T2                       0.257      26     0     0         1.000     100       7  18:12      0.033
  T1                       0.187      27     0     0         0.700     100       7  15:41      0.271
  
  
  ***********************
  Outfall Loading Summary
  ***********************
  
  -----------------------------------------------------------
                         Flow       Avg       Max       Total
                         Freq      Flow      Flow      Volume
  Outfall Node           Pcnt       CMS       CMS    10^6 ltr
  -----------------------------------------------------------
  Out_to_WWTP           99.95     0.124     0.271     159.383
  -----------------------------------------------------------
  System                99.95     0.124     0.271     159.383
  
  
  ********************
  Link Flow Summary
  ********************
  
  -----------------------------------------------------------------------------
                                 Maximum  Time of Max   Maximum    Max/    Max/
                                  |Flow|   Occurrence   |Veloc|    Full    Full
  Link                 Type          CMS  days hr:min     m/sec    Flow   Depth
  -----------------------------------------------------------------------------
  C1                   CONDUIT     0.039     7  17:28      0.87    0.01    0.11
  C6                   CONDUIT     0.038     7  20:57      1.17    0.61    0.47
  C2                   CONDUIT     0.028     7  18:27      0.84    0.03    0.18
  C9                   CONDUIT     0.075     9  16:25      1.15    0.26    0.37
  C16                  CONDUIT     0.204     7  17:12      1.36    0.02    0.09
  C3                   CONDUIT     0.124     7  16:49      1.81    0.05    0.14
  C19                  CONDUIT     0.033     7  19:03      0.62    0.01    0.17
  C11                  CONDUIT     0.191     7  18:40      1.74    0.01    0.10
  C20                  CONDUIT     0.350    10  01:06      2.04    0.01    0.10
  C22                  CONDUIT     0.113    10  01:09      1.18    0.05    0.25
  C12                  CONDUIT     0.613     7  22:15      1.54    0.05    0.30
  C17                  CONDUIT     0.345     9  19:33      2.00    0.02    0.30
  C10                  CONDUIT     0.354     9  16:25      2.35    0.04    0.56
  C13                  CONDUIT     0.523     7  23:30      0.93    0.03    0.75
  C18                  CONDUIT     0.230     9  16:36      1.00    0.01    0.53
  C23                  CONDUIT     0.648    10  01:11      0.93    0.07    0.59
  C4                   CONDUIT     0.163    10  01:06      1.11    0.04    0.57
  C7                   CONDUIT     0.088     7  20:56      0.83    0.02    0.55
  C14                  CONDUIT     0.271    10  01:04      2.08    0.02    0.09
  C5                   CONDUIT     0.040     7  20:55      1.24    0.68    0.66
  C8                   CONDUIT     0.078     9  16:22      1.74    0.99    0.72
  C15                  CONDUIT     0.206     7  17:10      2.62    0.66    0.52
  C21                  CONDUIT     0.114    10  01:06      1.67    0.65    0.46
  V4                   ORIFICE     0.028     7  17:51                      1.00
  V5                   ORIFICE     0.039     7  16:46                      1.00
  V1                   ORIFICE     0.271     7  15:41                      1.00
  V6                   ORIFICE     0.743     7  22:11                      1.00
  V3                   ORIFICE     0.124     7  16:47                      1.00
  V2                   ORIFICE     0.033     7  18:12                      1.00
  
  
  ***************************
  Flow Classification Summary
  ***************************
  
  -------------------------------------------------------------------------------------
                      Adjusted    ---------- Fraction of Time in Flow Class ---------- 
                       /Actual         Up    Down  Sub   Sup   Up    Down  Norm  Inlet 
  Conduit               Length    Dry  Dry   Dry   Crit  Crit  Crit  Crit  Ltd   Ctrl  
  -------------------------------------------------------------------------------------
  C1                      1.00   0.00  0.00  0.00  0.95  0.05  0.00  0.00  1.00  0.00
  C6                      1.00   0.00  0.00  0.00  0.00  1.00  0.00  0.00  0.00  0.00
  C2                      1.00   0.00  0.00  0.00  1.00  0.00  0.00  0.00  1.00  0.00
  C9                      1.00   0.00  0.00  0.00  1.00  0.00  0.00  0.00  1.00  0.00
  C16                     1.00   0.00  0.01  0.00  0.88  0.11  0.00  0.00  0.77  0.00
  C3                      1.00   0.00  0.00  0.00  0.00  1.00  0.00  0.00  0.01  0.00
  C19                     1.00   0.00  0.00  0.00  1.00  0.00  0.00  0.00  1.00  0.00
  C11                     1.00   0.00  0.00  0.00  0.01  0.99  0.00  0.00  1.00  0.00
  C20                     1.00   0.00  0.00  0.00  0.94  0.06  0.00  0.00  1.00  0.00
  C22                     1.00   0.00  0.00  0.00  1.00  0.00  0.00  0.00  1.00  0.00
  C12                     1.00   0.00  0.00  0.00  0.12  0.88  0.00  0.00  0.89  0.00
  C17                     1.00   0.00  0.00  0.00  0.60  0.40  0.00  0.00  1.00  0.00
  C10                     1.00   0.00  0.00  0.00  0.13  0.87  0.00  0.00  1.00  0.00
  C13                     1.00   0.00  0.00  0.00  0.99  0.01  0.00  0.00  0.91  0.00
  C18                     1.00   0.00  0.00  0.00  0.99  0.01  0.00  0.00  1.00  0.00
  C23                     1.00   0.00  0.00  0.00  0.99  0.01  0.00  0.00  1.00  0.00
  C4                      1.00   0.00  0.00  0.00  1.00  0.00  0.00  0.00  1.00  0.00
  C7                      1.00   0.00  0.00  0.00  0.99  0.01  0.00  0.00  1.00  0.00
  C14                     1.00   0.00  0.00  0.00  0.00  1.00  0.00  0.00  0.80  0.00
  C5                      1.00   0.00  0.00  0.00  0.97  0.03  0.00  0.00  1.00  0.00
  C8                      1.00   0.00  0.00  0.00  0.22  0.78  0.00  0.00  0.00  0.00
  C15                     1.00   0.01  0.00  0.00  0.10  0.90  0.00  0.00  0.03  0.00
  C21                     1.00   0.00  0.00  0.00  0.00  1.00  0.00  0.00  0.00  0.00
  
  
  *************************
  Conduit Surcharge Summary
  *************************
  
  ----------------------------------------------------------------------------
                                                           Hours        Hours 
                         --------- Hours Full --------   Above Full   Capacity
  Conduit                Both Ends  Upstream  Dnstream   Normal Flow   Limited
  ----------------------------------------------------------------------------
  C10                         0.01      0.01      8.27      0.01         0.01
  C13                         0.01      0.01     70.44      0.01         0.01
  C18                         0.01      0.01     76.45      0.01         0.01
  C23                         0.01      0.01     76.72      0.01         0.01
  C4                          0.01      0.01    110.25      0.01         0.01
  C7                          0.01      0.01    115.64      0.01         0.01
  

  Analysis begun on:  Wed Feb  5 10:47:45 2020
  Analysis ended on:  Wed Feb  5 10:48:10 2020
  Total elapsed time: 00:00:25