
  EPA STORM WATER MANAGEMENT MODEL - VERSION 5.1 (Build 5.3.0.dev0)
  --------------------------------------------------------------

  NOAH project 
  Rakvere pilot area 14.05.2020 
  Calibrated on the basis of 
  
  WARNING 03: negative offset ignored for Link 59954
  WARNING 04: minimum elevation drop used for Conduit 60036
  WARNING 04: minimum elevation drop used for Conduit 60027
  WARNING 03: negative offset ignored for Link 29693
  WARNING 03: negative offset ignored for Link 29735
  WARNING 04: minimum elevation drop used for Conduit 29735
  WARNING 04: minimum elevation drop used for Conduit 29736
  WARNING 03: negative offset ignored for Link 30217
  WARNING 03: negative offset ignored for Link 30257
  WARNING 04: minimum elevation drop used for Conduit 30400
  WARNING 04: minimum elevation drop used for Conduit 30401
  WARNING 04: minimum elevation drop used for Conduit 30402
  WARNING 03: negative offset ignored for Link 5540
  WARNING 03: negative offset ignored for Link 9655
  WARNING 04: minimum elevation drop used for Conduit 11755
  WARNING 04: minimum elevation drop used for Conduit 18955
  WARNING 04: minimum elevation drop used for Conduit 16575
  WARNING 04: minimum elevation drop used for Conduit 11756
  WARNING 03: negative offset ignored for Link 10583
  WARNING 04: minimum elevation drop used for Conduit 21783
  WARNING 03: negative offset ignored for Link 25655
  WARNING 04: minimum elevation drop used for Conduit 1
  WARNING 03: negative offset ignored for Link so-d-15
  WARNING 04: minimum elevation drop used for Conduit so-d-15
  WARNING 04: minimum elevation drop used for Conduit 5620
  WARNING 02: maximum depth increased for Node so-1
  WARNING 02: maximum depth increased for Node so-2
  
  *********************************************************
  NOTE: The summary statistics displayed in this report are
  based on results found at every computational time step,  
  not just on results from each reporting time step.
  *********************************************************
  
  ****************
  Analysis Options
  ****************
  Flow Units ............... LPS
  Process Models:
    Rainfall/Runoff ........ YES
    RDII ................... NO
    Snowmelt ............... NO
    Groundwater ............ NO
    Flow Routing ........... YES
    Ponding Allowed ........ YES
    Water Quality .......... NO
  Infiltration Method ...... HORTON
  Flow Routing Method ...... DYNWAVE
  Surcharge Method ......... EXTRAN
  Starting Date ............ 05/01/2016 00:00:00
  Ending Date .............. 08/01/2016 23:50:00
  Antecedent Dry Days ...... 0.0
  Report Time Step ......... 00:10:00
  Wet Time Step ............ 00:10:00
  Dry Time Step ............ 00:10:00
  Routing Time Step ........ 30.00 sec
  Variable Time Step ....... YES
  Maximum Trials ........... 10
  Number of Threads ........ 1
  Head Tolerance ........... 0.100000 m
  
  
  **************************        Volume         Depth
  Runoff Quantity Continuity     hectare-m            mm
  **************************     ---------       -------
  Initial Snow Cover .......         0.000         0.000
  Total Precipitation ......        18.893       293.200
  Evaporation Loss .........         0.842        13.062
  Infiltration Loss ........         8.646       134.180
  Surface Runoff ...........         9.789       151.917
  Snow Removed .............         0.000         0.000
  Final Snow Cover .........         0.000         0.000
  Final Storage ............         0.030         0.472
  Continuity Error (%) .....        -2.194
  
  
  **************************        Volume        Volume
  Flow Routing Continuity        hectare-m      10^6 ltr
  **************************     ---------     ---------
  Dry Weather Inflow .......         0.000         0.000
  Wet Weather Inflow .......         9.789        97.893
  Groundwater Inflow .......         0.000         0.000
  RDII Inflow ..............         0.000         0.000
  External Inflow ..........       116.523      1165.240
  External Outflow .........       128.069      1280.702
  Flooding Loss ............         0.192         1.918
  Evaporation Loss .........         0.020         0.205
  Exfiltration Loss ........         0.000         0.000
  Initial Stored Volume ....         1.172        11.721
  Final Stored Volume ......         1.270        12.697
  Continuity Error (%) .....        -1.621
  
  
  *************************
  Highest Continuity Errors
  *************************
  Node 12179 (-27.75%)
  Node 12175 (-9.96%)
  Node 12181 (-9.61%)
  Node 29094 (-6.97%)
  Node 29432 (-6.39%)
  
  
  ***************************
  Time-Step Critical Elements
  ***************************
  Link so-d-18 (99.69%)
  
  
  ********************************
  Highest Flow Instability Indexes
  ********************************
  Link 29728 (4)
  
  
  *************************
  Routing Time Step Summary
  *************************
  Minimum Time Step           :     1.50 sec
  Average Time Step           :     1.50 sec
  Maximum Time Step           :     1.50 sec
  Percent in Steady State     :     0.00
  Average Iterations per Step :     2.02
  Percent Not Converging      :     0.20
  
  
  ***************************
  Subcatchment Runoff Summary
  ***************************
  
  ------------------------------------------------------------------------------------------------------------------------------
                            Total      Total      Total      Total     Imperv       Perv      Total       Total     Peak  Runoff
                           Precip      Runon       Evap      Infil     Runoff     Runoff     Runoff      Runoff   Runoff   Coeff
  Subcatchment                 mm         mm         mm         mm         mm         mm         mm    10^6 ltr      LPS
  ------------------------------------------------------------------------------------------------------------------------------
  s1                       293.20       0.00       2.37     263.88      28.03       0.00      28.03        0.01     0.35   0.096
  s2                       293.20       0.00      16.72      87.96     196.98       0.00     196.98        0.03     1.33   0.672
  s3                       293.20       0.00       8.59     187.85     101.15       0.00     101.15        0.15     6.66   0.345
  s4                       293.20       0.00       3.16     254.28      37.27       0.00      37.27        0.05     2.31   0.127
  s5                       293.20       0.00      14.32     117.28     168.80       0.00     168.80        0.04     1.71   0.576
  s6                       293.20       0.00      19.62      52.78     230.78       0.00     230.78        0.03     1.29   0.787
  s7                       293.20       0.00      12.62     138.22     148.74       0.00     148.74        0.08     3.50   0.507
  s8                       293.20       0.00      10.97     158.33     129.37       0.00     129.37        0.06     2.91   0.441
  s9                       293.20       0.00      23.97       0.00     281.37       0.00     281.37        0.11     4.97   0.960
  s10                      293.20       0.00      20.02      47.98     235.39       0.00     235.39        0.06     2.88   0.803
  s11                      293.20       0.00       6.58     212.45      77.50       0.00      77.50        0.23    10.26   0.264
  s12                      293.20       0.00       5.58     224.86      65.60       0.00      65.60        0.42    18.77   0.224
  s13                      293.20       0.00      15.27     105.55     180.02       0.00     180.02        0.02     1.01   0.614
  s14                      293.20       0.00      16.78      89.04     195.33       0.00     195.33        0.80    33.38   0.666
  s15                      293.20       0.00      21.57      30.45     251.55       0.00     251.55        0.16     6.93   0.858
  s16                      293.20       0.00      22.56      18.20     263.41       0.00     263.41        0.19     8.15   0.898
  s17                      293.20       0.00      18.02      71.97     212.31       0.00     212.31        0.06     2.62   0.724
  s18                      293.20       0.00      24.01       0.00     281.18       0.00     281.18        0.10     4.29   0.959
  s19                      293.20       0.00      18.04      71.97     212.35       0.00     212.35        0.06     2.61   0.724
  s20                      293.20       0.00      18.45      65.97     217.75       0.00     217.75        0.02     0.98   0.743
  s21                      293.20       0.00      10.95     158.33     129.20       0.00     129.20        0.02     0.73   0.441
  s22                      293.20       0.00      16.66      89.83     195.02       0.00     195.02        0.23     9.97   0.665
  s23                      293.20       0.00      21.25      32.99     249.78       0.00     249.78        0.05     2.22   0.852
  s24                      293.20       0.00      10.92     158.33     129.03       0.00     129.03        0.02     0.73   0.440
  s25                      293.20       0.00       9.49     175.92     112.17       0.00     112.17        0.01     0.38   0.383
  s26                      293.20       0.00       8.49     188.49     100.23       0.00     100.23        0.04     1.58   0.342
  s27                      293.20       0.00       8.53     188.49     100.48       0.00     100.48        0.07     3.16   0.343
  s28                      293.20       0.00      13.11     131.94     154.63       0.00     154.63        0.05     2.09   0.527
  s29                      293.20       0.00      12.27     142.09     144.81       0.00     144.81        0.05     2.12   0.494
  s30                      293.20       0.00       8.01     194.87      94.41       0.00      94.41        0.15     6.89   0.322
  s31                      293.20       0.00      12.06     145.13     142.08       0.00     142.08        0.07     3.19   0.485
  s32                      293.20       0.00      23.90       0.00     281.41       0.00     281.41        0.04     1.89   0.960
  s33                      293.20       0.00      15.25     105.55     179.92       0.00     179.92        0.02     1.01   0.614
  s34                      293.20       0.00      13.11     131.94     154.60       0.00     154.60        0.02     1.04   0.527
  s35                      293.20       0.00       8.70     186.54     102.38       0.00     102.38        0.15     6.65   0.349
  s36                      293.20       0.00      20.75      39.09     243.91       0.00     243.91        0.16     7.32   0.832
  s37                      293.20       0.00      14.91     109.95     175.76       0.00     175.76        0.05     2.37   0.599
  s38                      293.20       0.00      13.07     131.94     154.35       0.00     154.35        0.01     0.35   0.526
  s39                      293.20       0.00      17.09      84.82     199.65       0.00     199.65        0.28    11.98   0.681
  s40                      293.20       0.00      21.96      23.99     258.41       0.00     258.41        0.07     3.17   0.881
  s41                      293.20       0.00      23.94       0.00     281.49       0.00     281.49        0.13     5.64   0.960
  s42                      293.20       0.00       9.85     173.04     115.17       0.00     115.17        1.05    45.43   0.393
  s43                      293.20       0.00      24.00       0.00     281.22       0.00     281.22        0.15     6.45   0.959
  s44                      293.20       0.00      24.12       0.00     280.23       0.00     280.23        0.29    12.13   0.956
  s45                      293.20       0.00      22.87      17.72     260.68       0.00     260.68        0.87    30.97   0.889
  s46                      293.20       0.00      15.44     107.15     176.20       0.00     176.20        1.31    47.21   0.601
  s47                      293.20       0.00       7.54     200.70      88.82       0.00      88.82        0.16     7.05   0.303
  s48                      293.20       0.00      13.14     131.94     154.78       0.00     154.78        0.07     3.12   0.528
  s49                      293.20       0.00      17.95      73.30     211.08       0.00     211.08        0.09     4.23   0.720
  s50                      293.20       0.00      13.17     131.94     154.79       0.00     154.79        0.15     6.54   0.528
  s51                      293.20       0.00      16.12      95.96     189.31       0.00     189.31        0.26    11.53   0.646
  s52                      293.20       0.00      16.66      90.99     192.98       0.00     192.98        0.84    33.87   0.658
  s53                      293.20       0.00      20.26      43.98     238.97       0.00     238.97        0.04     1.61   0.815
  s54                      293.20       0.00      24.00       0.00     281.24       0.00     281.24        0.12     5.23   0.959
  s55                      293.20       0.00      13.61     126.20     160.31       0.00     160.31        0.09     4.13   0.547
  s56                      293.20       0.00       9.72     173.77     114.55       0.00     114.55        0.12     5.28   0.391
  s57                      293.20       0.00       9.04     183.91     103.89       0.00     103.89        2.63   100.41   0.354
  s58                      293.20       0.00      15.27     106.67     178.93       0.00     178.93        0.21     9.20   0.610
  s59                      293.20       0.00      17.40      79.16     205.27       0.00     205.27        0.05     2.31   0.700
  s60                      293.20       0.00      12.73     138.83     147.20       0.00     147.20        0.99    39.33   0.502
  s61                      293.20       0.00      20.38      43.98     239.14       0.00     239.14        0.11     4.74   0.816
  s62                      293.20       0.00       9.42     178.25     110.31       0.00     110.31        0.83    36.04   0.376
  s63                      293.20       0.00      15.74     100.90     184.49       0.00     184.49        0.16     6.88   0.629
  s64                      293.20       0.00      13.99     122.52     163.60       0.00     163.60        0.23     9.89   0.558
  s65                      293.20       0.00      10.09     169.64     118.60       0.00     118.60        0.50    22.10   0.404
  s66                      293.20       0.00       9.91     172.42     115.72       0.00     115.72        1.57    67.12   0.395
  s67                      293.20       0.00      20.17      46.57     236.78       0.00     236.78        0.10     4.44   0.808
  s68                      293.20       0.00       9.52     175.92     112.37       0.00     112.37        0.03     1.52   0.383
  s69                      293.20       0.00      23.92       0.00     281.44       0.00     281.44        0.04     1.57   0.960
  s70                      293.20       0.00      23.96       0.00     281.40       0.00     281.40        0.04     1.87   0.960
  s71                      293.20       0.00      18.84      62.09     221.82       0.00     221.82        0.09     4.22   0.757
  s72                      293.20       0.00      16.73      87.96     197.02       0.00     197.02        0.03     1.32   0.672
  s73                      293.20       0.00       7.44     202.46      86.97       0.00      86.97        0.76    32.66   0.297
  s74                      293.20       0.00       7.99     195.20      94.07       0.00      94.07        0.17     7.69   0.321
  s75                      293.20       0.00       6.27     215.90      73.99       0.00      73.99        0.02     0.92   0.252
  s76                      293.20       0.00      16.72      87.96     196.95       0.00     196.95        0.06     2.65   0.672
  s77                      293.20       0.00      16.64      87.96     196.55       0.00     196.55        0.01     0.66   0.670
  s78                      293.20       0.00      19.62      52.78     230.78       0.00     230.78        0.06     2.57   0.787
  s79                      293.20       0.00      22.16      21.99     260.30       0.00     260.30        0.08     3.46   0.888
  s80                      293.20       0.00      17.23      84.35     199.08       0.00     199.08        1.09    43.24   0.679
  s81                      293.20       0.00      24.07       0.00     280.74       0.00     280.74        0.17     7.15   0.957
  s82                      293.20       0.00      24.00       0.00     281.22       0.00     281.22        0.12     5.22   0.959
  s83                      293.20       0.00      21.21      32.99     249.79       0.00     249.79        0.05     2.24   0.852
  s84                      293.20       0.00      23.98       0.00     281.35       0.00     281.35        0.08     3.41   0.960
  s85                      293.20       0.00       7.73     197.91      91.29       0.00      91.29        0.03     1.23   0.311
  s86                      293.20       0.00      16.58      94.24     187.44       0.00     187.44        4.26   139.08   0.639
  s87                      293.20       0.00      17.29      81.19     203.49       0.00     203.49        0.07     2.96   0.694
  s88                      293.20       0.00      13.10     131.94     154.52       0.00     154.52        0.02     1.04   0.527
  s89                      293.20       0.00      23.92       0.00     281.53       0.00     281.53        0.06     2.83   0.960
  s90                      293.20       0.00       4.82     233.89      56.84       0.00      56.84        0.13     5.63   0.194
  s91                      293.20       0.00       2.37     263.88      28.03       0.00      28.03        0.03     1.14   0.096
  s92                      293.20       0.00      16.74      87.96     197.00       0.00     197.00        0.04     1.98   0.672
  s93                      293.20       0.00      10.44     164.92     123.09       0.00     123.09        0.02     1.11   0.420
  s94                      293.20       0.00      17.85      75.39     208.77       0.00     208.77        0.11     4.73   0.712
  s95                      293.20       0.00      19.57      52.78     230.79       0.00     230.79        0.03     1.30   0.787
  s96                      293.20       0.00      14.11     119.95     166.25       0.00     166.25        0.05     2.05   0.567
  s97                      293.20       0.00      19.59      52.78     230.74       0.00     230.74        0.06     2.59   0.787
  s98                      293.20       0.00      13.09     131.94     154.48       0.00     154.48        0.02     0.70   0.527
  s99                      293.20       0.00      18.03      71.97     212.34       0.00     212.34        0.06     2.61   0.724
  s100                     293.20       0.00      16.70      87.96     196.94       0.00     196.94        0.04     1.99   0.672
  s101                     293.20       0.00      21.73      26.39     256.10       0.00     256.10        0.06     2.87   0.873
  s102                     293.20       0.00       6.27     216.23      73.84       0.00      73.84        0.13     5.97   0.252
  s103                     293.20       0.00      12.79     136.49     150.42       0.00     150.42        0.11     4.86   0.513
  s104                     293.20       0.00      21.52      29.32     253.29       0.00     253.29        0.06     2.55   0.864
  s105                     293.20       0.00      21.51      29.32     253.26       0.00     253.26        0.06     2.55   0.864
  s106                     293.20       0.00      19.55      52.78     230.58       0.00     230.58        0.03     1.30   0.786
  s107                     293.20       0.00      21.51      29.32     253.31       0.00     253.31        0.06     2.55   0.864
  s108                     293.20       0.00      23.92       0.00     281.44       0.00     281.44        0.07     3.14   0.960
  s109                     293.20       0.00      23.93       0.00     281.44       0.00     281.44        0.09     4.07   0.960
  s110                     293.20       0.00      13.98     121.79     164.52       0.00     164.52        0.11     4.79   0.561
  s111                     293.20       0.00      23.92       0.00     281.44       0.00     281.44        0.04     1.89   0.960
  s112                     293.20       0.00      16.71      87.96     197.13       0.00     197.13        0.04     1.99   0.672
  s113                     293.20       0.00      19.16      58.64     225.14       0.00     225.14        0.05     2.25   0.768
  s114                     293.20       0.00      21.80      26.39     256.07       0.00     256.07        0.06     2.83   0.873
  s115                     293.20       0.00      17.61      77.61     206.93       0.00     206.93        0.09     3.91   0.706
  s116                     293.20       0.00      17.52      79.16     205.32       0.00     205.32        0.15     6.74   0.700
  s117                     293.20       0.00      23.97       0.00     281.49       0.00     281.49        0.08     3.41   0.960
  s118                     293.20       0.00      16.67      87.96     196.69       0.00     196.69        0.01     0.66   0.671
  s119                     293.20       0.00      16.36      93.13     191.97       0.00     191.97        0.08     3.59   0.655
  s120                     293.20       0.00       8.27     191.91      97.22       0.00      97.22        0.19     8.30   0.332
  s121                     293.20       0.00      20.15      46.57     236.71       0.00     236.71        0.10     4.45   0.807
  s122                     293.20       0.00      12.44     141.04     146.01       0.00     146.01        0.21     9.33   0.498
  s123                     293.20       0.00      14.48     115.45     170.60       0.00     170.60        0.07     3.06   0.582
  s124                     293.20       0.00       5.97     219.90      70.34       0.00      70.34        0.13     5.69   0.240
  s125                     293.20       0.00      21.80      26.39     256.08       0.00     256.08        0.06     2.84   0.873
  s126                     293.20       0.00      23.96       0.00     281.39       0.00     281.39        0.06     2.80   0.960
  s127                     293.20       0.00       7.64     199.26      90.11       0.00      90.11        0.11     4.97   0.307
  s128                     293.20       0.00      16.69      87.96     196.82       0.00     196.82        0.04     1.99   0.671
  s129                     293.20       0.00       5.75     222.21      67.93       0.00      67.93        0.03     1.46   0.232
  s130                     293.20       0.00       5.50     225.57      64.88       0.00      64.88        0.10     4.52   0.221
  s131                     293.20       0.00      22.74      14.66     267.44       0.00     267.44        0.12     5.35   0.912
  s132                     293.20       0.00       4.15     241.89      49.08       0.00      49.08        0.01     0.66   0.167
  s133                     293.20       0.00      15.23     105.55     179.80       0.00     179.80        0.02     1.01   0.613
  s134                     293.20       0.00      20.29      43.98     239.16       0.00     239.16        0.07     3.22   0.816
  s135                     293.20       0.00      10.92     158.33     129.06       0.00     129.06        0.02     0.73   0.440
  s136                     293.20       0.00      18.22      71.04     212.88       0.00     212.88        0.28    11.90   0.726
  s137                     293.20       0.00      17.42      79.16     205.42       0.00     205.42        0.05     2.31   0.701
  s138                     293.20       0.00      24.00       0.00     281.22       0.00     281.22        0.06     2.76   0.959
  s139                     293.20       0.00      14.63     113.09     172.64       0.00     172.64        0.03     1.36   0.589
  s140                     293.20       0.00       9.58     175.92     112.57       0.00     112.57        0.11     4.87   0.384
  s141                     293.20       0.00      24.03       0.00     281.07       0.00     281.07        0.10     4.26   0.959
  s142                     293.20       0.00      19.20      58.64     224.97       0.00     224.97        0.10     4.42   0.767
  s143                     293.20       0.00       9.00     183.22     105.49       0.00     105.49        0.60    26.39   0.360
  s144                     293.20       0.00      23.37       8.80     272.11       0.00     272.11        0.20     8.56   0.928
  s145                     293.20       0.00      23.99       0.00     281.29       0.00     281.29        0.08     3.39   0.959
  s146                     293.20       0.00      23.85       0.00     281.22       0.00     281.22        0.02     0.95   0.959
  s147                     293.20       0.00      18.55      65.97     218.17       0.00     218.17        0.04     1.94   0.744
  s148                     293.20       0.00      18.49      66.85     217.26       0.00     217.26        0.14     6.03   0.741
  s149                     293.20       0.00      21.56      29.32     253.27       0.00     253.27        0.06     2.52   0.864
  s150                     293.20       0.00      19.61      52.78     230.77       0.00     230.77        0.06     2.58   0.787
  s151                     293.20       0.00      19.11      58.64     225.09       0.00     225.09        0.05     2.27   0.768
  s152                     293.20       0.00      23.94       0.00     281.57       0.00     281.57        0.06     2.82   0.960
  s153                     293.20       0.00      23.82       0.00     281.03       0.00     281.03        0.01     0.32   0.958
  s154                     293.20       0.00      23.96       0.00     281.39       0.00     281.39        0.06     2.80   0.960
  s155                     293.20       0.00      21.77      26.39     256.11       0.00     256.11        0.06     2.86   0.873
  s156                     293.20       0.00      19.11      58.64     225.09       0.00     225.09        0.05     2.27   0.768
  s157                     293.20       0.00      14.63     113.09     172.66       0.00     172.66        0.03     1.36   0.589
  s158                     293.20       0.00      19.13      58.64     225.14       0.00     225.14        0.05     2.27   0.768
  s159                     293.20       0.00      23.84       0.00     281.17       0.00     281.17        0.02     0.95   0.959
  s160                     293.20       0.00      17.72      75.39     208.96       0.00     208.96        0.04     1.64   0.713
  s161                     293.20       0.00      19.13      58.64     225.15       0.00     225.15        0.05     2.26   0.768
  s162                     293.20       0.00      14.70     113.09     172.88       0.00     172.88        0.03     1.35   0.590
  s163                     293.20       0.00      23.99       0.00     281.43       0.00     281.43        0.05     2.16   0.960
  s164                     293.20       0.00      21.56      29.32     253.38       0.00     253.38        0.06     2.52   0.864
  s165                     293.20       0.00      14.96     109.95     175.90       0.00     175.90        0.05     2.35   0.600
  s166                     293.20       0.00       5.06     230.90      59.71       0.00      59.71        0.07     3.23   0.204
  s167                     293.20       0.00       7.09     205.96      83.65       0.00      83.65        0.09     3.86   0.285
  s168                     293.20       0.00      16.73      87.96     196.98       0.00     196.98        0.04     1.99   0.672
  s169                     293.20       0.00      21.50      29.32     253.28       0.00     253.28        0.06     2.55   0.864
  s170                     293.20       0.00      17.72      75.39     208.92       0.00     208.92        0.04     1.64   0.713
  s171                     293.20       0.00      18.01      71.97     212.32       0.00     212.32        0.06     2.62   0.724
  s172                     293.20       0.00       8.67     186.91     102.02       0.00     102.02        0.18     8.20   0.348
  s173                     293.20       0.00      10.99     158.33     129.44       0.00     129.44        0.11     5.08   0.441
  s174                     293.20       0.00       5.64     223.72      66.57       0.00      66.57        0.08     3.45   0.227
  s175                     293.20       0.00      13.12     131.94     154.66       0.00     154.66        0.05     2.09   0.527
  s176                     293.20       0.00      15.25     105.55     179.93       0.00     179.93        0.02     1.01   0.614
  s177                     293.20       0.00      16.71      87.96     196.99       0.00     196.99        0.04     1.99   0.672
  s178                     293.20       0.00      19.11      58.64     225.14       0.00     225.14        0.05     2.27   0.768
  s179                     293.20       0.00      15.27     105.55     179.98       0.00     179.98        0.04     2.02   0.614
  s180                     293.20       0.00      15.64     101.49     184.02       0.00     184.02        0.06     2.67   0.628
  s181                     293.20       0.00      15.03     108.66     177.09       0.00     177.09        0.08     3.38   0.604
  s182                     293.20       0.00      11.23     155.22     132.43       0.00     132.43        0.06     2.53   0.452
  s183                     293.20       0.00      18.03      71.97     212.34       0.00     212.34        0.06     2.62   0.724
  s184                     293.20       0.00      10.94     158.33     129.16       0.00     129.16        0.02     0.73   0.441
  s185                     293.20       0.00       9.53     175.92     112.42       0.00     112.42        0.04     1.90   0.383
  s186                     293.20       0.00      16.66      87.96     196.60       0.00     196.60        0.01     0.66   0.671
  s187                     293.20       0.00      11.91     146.60     140.54       0.00     140.54        0.03     1.42   0.479
  s188                     293.20       0.00      11.24     155.22     132.40       0.00     132.40        0.06     2.53   0.452
  s189                     293.20       0.00       9.17     180.55     108.07       0.00     108.07        0.05     2.31   0.369
  s190                     293.20       0.00      15.63     101.49     184.03       0.00     184.03        0.06     2.68   0.628
  s191                     293.20       0.00       7.13     205.24      84.23       0.00      84.23        0.02     0.85   0.287
  s192                     293.20       0.00      17.20      82.46     202.32       0.00     202.32        0.08     3.60   0.690
  s193                     293.20       0.00      24.02       0.00     281.13       0.00     281.13        0.12     5.19   0.959
  s194                     293.20       0.00      24.01       0.00     281.18       0.00     281.18        0.13     5.51   0.959
  s195                     293.20       0.00      23.95       0.00     281.42       0.00     281.42        0.06     2.81   0.960
  s196                     293.20       0.00      24.16       0.00     279.80       0.00     279.80        0.62    24.81   0.954
  s197                     293.20       0.00      21.26      32.99     249.75       0.00     249.75        0.15     6.64   0.852
  s198                     293.20       0.00      20.13      46.57     236.74       0.00     236.74        0.10     4.48   0.807
  s199                     293.20       0.00      19.11      58.64     225.09       0.00     225.09        0.05     2.27   0.768
  s200                     293.20       0.00      23.90       0.00     281.46       0.00     281.46        0.01     0.63   0.960
  s201                     293.20       0.00      10.45     165.42     122.63       0.00     122.63        0.21     9.08   0.418
  s202                     293.20       0.00       4.21     241.52      49.58       0.00      49.58        0.15     6.58   0.169
  s203                     293.20       0.00      16.25      95.45     189.20       0.00     189.20        0.44    18.64   0.645
  s204                     293.20       0.00      24.05       0.00     280.92       0.00     280.92        0.12     5.12   0.958
  s205                     293.20       0.00      22.78      14.66     267.28       0.00     267.28        0.12     5.30   0.912
  s206                     293.20       0.00      12.57     140.33     146.15       0.00     146.15        0.63    26.19   0.498
  s207                     293.20       0.00      15.32     105.55     180.12       0.00     180.12        0.14     6.01   0.614
  s208                     293.20       0.00      23.84       0.00     281.17       0.00     281.17        0.02     0.95   0.959
  s209                     293.20       0.00      19.57      52.78     230.70       0.00     230.70        0.03     1.30   0.787
  s210                     293.20       0.00      11.83     148.78     138.45       0.00     138.45        0.33    14.10   0.472
  s211                     293.20       0.00      23.99       0.00     281.30       0.00     281.30        0.18     8.03   0.959
  s212                     293.20       0.00      17.57      81.19     200.99       0.00     200.99        1.83    66.91   0.685
  s213                     293.20       0.00      23.40       8.00     273.17       0.00     273.17        0.23     9.62   0.932
  s214                     293.20       0.00      20.73      42.22     238.89       0.00     238.89        0.60    23.24   0.815
  s215                     293.20       0.00      23.99       0.00     281.30       0.00     281.30        0.07     3.09   0.959
  s216                     293.20       0.00      21.53      29.32     253.35       0.00     253.35        0.06     2.54   0.864
  s217                     293.20       0.00      20.81      37.70     245.18       0.00     245.18        0.04     1.93   0.836
  s218                     293.20       0.00      20.02      47.98     235.39       0.00     235.39        0.06     2.88   0.803
  s219                     293.20       0.00      18.52      65.97     218.08       0.00     218.08        0.04     1.95   0.744
  s220                     293.20       0.00      23.94       0.00     281.49       0.00     281.49        0.08     3.44   0.960
  s221                     293.20       0.00      16.32      93.13     192.03       0.00     192.03        0.08     3.65   0.655
  s222                     293.20       0.00      10.42     164.92     122.91       0.00     122.91        0.02     1.11   0.419
  s223                     293.20       0.00      20.35      43.98     239.28       0.00     239.28        0.07     3.19   0.816
  s224                     293.20       0.00      14.64     113.09     172.71       0.00     172.71        0.03     1.36   0.589
  s225                     293.20       0.00      16.74      87.96     197.07       0.00     197.07        0.04     1.98   0.672
  s226                     293.20       0.00      15.32     105.55     180.17       0.00     180.17        0.05     2.00   0.614
  s227                     293.20       0.00      15.30     105.55     180.11       0.00     180.11        0.05     2.01   0.614
  s228                     293.20       0.00      16.72      87.96     197.00       0.00     197.00        0.04     1.99   0.672
  s229                     293.20       0.00       9.51     175.92     112.27       0.00     112.27        0.01     0.38   0.383
  s230                     293.20       0.00      16.70      87.96     196.89       0.00     196.89        0.04     1.99   0.672
  s231                     293.20       0.00      14.63     113.09     172.64       0.00     172.64        0.03     1.36   0.589
  s232                     293.20       0.00      19.12      58.64     225.17       0.00     225.17        0.05     2.27   0.768
  s233                     293.20       0.00      12.16     143.93     143.29       0.00     143.29        0.04     1.77   0.489
  s234                     293.20       0.00      19.33      56.55     227.15       0.00     227.15        0.08     3.53   0.775
  s235                     293.20       0.00      16.74      87.96     197.01       0.00     197.01        0.04     1.98   0.672
  s236                     293.20       0.00      16.71      87.96     197.03       0.00     197.03        0.04     1.99   0.672
  s237                     293.20       0.00      16.07      95.96     189.27       0.00     189.27        0.05     2.34   0.646
  s238                     293.20       0.00       3.58     249.22      42.18       0.00      42.18        0.09     4.27   0.144
  s239                     293.20       0.00       5.66     223.72      66.69       0.00      66.69        0.15     6.89   0.227
  s240                     293.20       0.00      19.10      58.64     225.08       0.00     225.08        0.05     2.27   0.768
  s241                     293.20       0.00      15.79      98.96     186.24       0.00     186.24        0.04     1.68   0.635
  s242                     293.20       0.00      13.11     131.94     154.65       0.00     154.65        0.05     2.44   0.527
  s243                     293.20       0.00      23.88       0.00     281.40       0.00     281.40        0.05     2.21   0.960
  s244                     293.20       0.00      13.62     126.20     160.29       0.00     160.29        0.09     4.12   0.547
  s245                     293.20       0.00      16.07      95.96     189.27       0.00     189.27        0.05     2.34   0.646
  s246                     293.20       0.00       2.37     263.88      28.02       0.00      28.02        0.00     0.06   0.096
  s247                     293.20       0.00      15.80      98.96     186.41       0.00     186.41        0.04     1.68   0.636
  s248                     293.20       0.00      23.96       0.00     281.40       0.00     281.40        0.06     2.80   0.960
  s249                     293.20       0.00      23.94       0.00     281.43       0.00     281.43        0.06     2.81   0.960
  s250                     293.20       0.00      17.19      82.46     202.28       0.00     202.28        0.08     3.61   0.690
  s251                     293.20       0.00      23.34       9.42     271.23       0.00     271.23        0.38    15.67   0.925
  s252                     293.20       0.00      22.62      17.59     264.56       0.00     264.56        0.20     9.07   0.902
  s253                     293.20       0.00      14.92     109.95     175.83       0.00     175.83        0.05     2.37   0.600
  s254                     293.20       0.00      12.39     141.36     145.75       0.00     145.75        0.10     4.55   0.497
  s255                     293.20       0.00      21.19      34.42     248.18       0.00     248.18        0.14     6.22   0.846
  s256                     293.20       0.00      23.86       0.00     281.29       0.00     281.29        0.02     0.95   0.959
  s257                     293.20       0.00      24.03       0.00     281.07       0.00     281.07        0.12     5.17   0.959
  s258                     293.20       0.00      18.23      70.37     213.81       0.00     213.81        0.16     7.05   0.729
  s259                     293.20       0.00      17.17      83.56     201.06       0.00     201.06        0.30    13.15   0.686
  s260                     293.20       0.00      13.09     131.94     154.48       0.00     154.48        0.02     0.70   0.527
  s261                     293.20       0.00      21.19      34.42     248.19       0.00     248.19        0.14     6.23   0.846
  s262                     293.20       0.00      21.05      35.98     246.77       0.00     246.77        0.14     5.96   0.842
  s263                     293.20       0.00      18.06      71.97     212.36       0.00     212.36        0.06     2.60   0.724
  s264                     293.20       0.00      20.30      43.98     239.17       0.00     239.17        0.04     1.61   0.816
  s265                     293.20       0.00      22.01      23.99     258.35       0.00     258.35        0.07     3.14   0.881
  s266                     293.20       0.00      15.25     105.55     179.93       0.00     179.93        0.02     1.01   0.614
  s267                     293.20       0.00      16.71      87.96     197.00       0.00     197.00        0.04     1.99   0.672
  s268                     293.20       0.00      13.13     131.94     154.78       0.00     154.78        0.05     2.08   0.528
  s269                     293.20       0.00      13.76     125.00     161.38       0.00     161.38        0.15     6.73   0.550
  s270                     293.20       0.00      23.94       0.00     281.51       0.00     281.51        0.06     2.82   0.960
  s271                     293.20       0.00      13.21     131.94     154.65       0.00     154.65        0.29    12.46   0.527
  s272                     293.20       0.00      21.74      26.39     256.07       0.00     256.07        0.06     2.87   0.873
  s273                     293.20       0.00      13.18     131.94     154.77       0.00     154.77        0.14     6.17   0.528
  s274                     293.20       0.00       6.34     215.27      74.76       0.00      74.76        0.07     3.19   0.255
  s275                     293.20       0.00      13.10     131.94     154.52       0.00     154.52        0.02     1.04   0.527
  s276                     293.20       0.00      11.92     146.60     140.55       0.00     140.55        0.03     1.42   0.479
  s277                     293.20       0.00       8.49     188.49     100.28       0.00     100.28        0.02     0.79   0.342
  s278                     293.20       0.00      11.60     150.79     136.67       0.00     136.67        0.05     2.15   0.466
  s279                     293.20       0.00      18.67      66.90     215.63       0.00     215.63        0.38    15.11   0.735
  s280                     293.20       0.00      23.94       0.00     281.51       0.00     281.51        0.02     0.94   0.960
  s281                     293.20       0.00      23.94       0.00     281.43       0.00     281.43        0.04     1.88   0.960
  s282                     293.20       0.00      11.06     158.33     129.26       0.00     129.26        0.26    11.14   0.441
  s283                     293.20       0.00      13.14     131.94     154.78       0.00     154.78        0.07     3.12   0.528
  s284                     293.20       0.00      16.23      94.24     190.98       0.00     190.98        0.07     2.98   0.651
  s285                     293.20       0.00      18.55      65.97     218.17       0.00     218.17        0.07     2.91   0.744
  s286                     293.20       0.00      11.52     153.63     132.91       0.00     132.91        2.43    94.97   0.453
  s287                     293.20       0.00      24.05       0.00     280.93       0.00     280.93        0.17     7.23   0.958
  s288                     293.20       0.00       9.84     172.54     115.83       0.00     115.83        0.15     6.74   0.395
  s289                     293.20       0.00       8.64     187.27     101.68       0.00     101.68        0.16     7.05   0.347
  s290                     293.20       0.00      18.52      65.97     218.14       0.00     218.14        0.07     2.93   0.744
  s291                     293.20       0.00      14.29     119.70     165.69       0.00     165.69        0.40    16.36   0.565
  s292                     293.20       0.00       9.63     175.92     112.26       0.00     112.26        0.42    17.79   0.383
  s293                     293.20       0.00      22.41      18.85     263.33       0.00     263.33        0.09     4.09   0.898
  s294                     293.20       0.00      19.16      58.64     225.14       0.00     225.14        0.10     4.50   0.768
  s295                     293.20       0.00      21.28      32.99     249.68       0.00     249.68        0.15     6.59   0.852
  s296                     293.20       0.00      15.83      98.96     186.44       0.00     186.44        0.07     3.34   0.636
  s297                     293.20       0.00       9.54     175.92     112.50       0.00     112.50        0.05     2.28   0.384
  s298                     293.20       0.00      18.94      60.90     222.97       0.00     222.97        0.07     3.24   0.760
  s299                     293.20       0.00      20.04      47.98     235.35       0.00     235.35        0.13     5.73   0.803
  s300                     293.20       0.00      14.65     113.09     172.76       0.00     172.76        0.03     1.36   0.589
  s301                     293.20       0.00      19.39      56.14     227.45       0.00     227.45        0.27    11.75   0.776
  s302                     293.20       0.00      22.41      18.85     263.33       0.00     263.33        0.09     4.09   0.898
  s303                     293.20       0.00      13.09     131.94     154.52       0.00     154.52        0.02     1.04   0.527
  s304                     293.20       0.00      21.50      29.32     253.28       0.00     253.28        0.06     2.55   0.864
  s305                     293.20       0.00      18.54      67.37     216.20       0.00     216.20        0.25    10.77   0.737
  s306                     293.20       0.00      20.76      39.58     243.27       0.00     243.27        0.12     5.32   0.830
  s307                     293.20       0.00      16.69      87.96     196.91       0.00     196.91        0.04     1.99   0.672
  s308                     293.20       0.00       2.37     263.88      28.02       0.00      28.02        0.00     0.03   0.096
  s309                     293.20       0.00      16.79      87.96     196.90       0.00     196.90        0.21     9.07   0.672
  s310                     293.20       0.00       7.75     197.91      91.40       0.00      91.40        0.09     4.11   0.312
  s311                     293.20       0.00      10.83     160.62     127.26       0.00     127.26        0.07     3.25   0.434
  s312                     293.20       0.00      20.88      37.70     245.22       0.00     245.22        0.04     1.90   0.836
  s313                     293.20       0.00      22.21      21.99     260.07       0.00     260.07        0.08     3.40   0.887
  s314                     293.20       0.00      18.23      70.80     213.14       0.00     213.14        0.22     9.41   0.727
  s315                     293.20       0.00       7.76     197.91      91.45       0.00      91.45        0.09     4.11   0.312
  s316                     293.20       0.00      17.74      75.39     209.07       0.00     209.07        0.04     1.64   0.713
  s317                     293.20       0.00      24.01       0.00     281.20       0.00     281.20        0.09     3.98   0.959
  s318                     293.20       0.00       4.51     237.49      53.31       0.00      53.31        0.01     0.60   0.182
  s319                     293.20       0.00      22.14      21.99     260.33       0.00     260.33        0.08     3.48   0.888
  s320                     293.20       0.00      15.26     105.55     180.00       0.00     180.00        0.02     1.01   0.614
  s321                     293.20       0.00      19.07      58.64     224.94       0.00     224.94        0.05     2.28   0.767
  s322                     293.20       0.00      19.56      52.78     230.64       0.00     230.64        0.06     2.59   0.787
  s323                     293.20       0.00       7.46     201.79      87.74       0.00      87.74        0.19     8.32   0.299
  s324                     293.20       0.00      23.97       0.00     281.37       0.00     281.37        0.09     4.04   0.960
  s325                     293.20       0.00      17.05      84.44     200.38       0.00     200.38        0.13     5.56   0.683
  s326                     293.20       0.00      17.93      73.30     211.09       0.00     211.09        0.09     4.25   0.720
  s327                     293.20       0.00      12.30     142.09     145.01       0.00     145.01        0.09     4.23   0.495
  s328                     293.20       0.00       7.88     196.22      92.99       0.00      92.99        0.09     4.08   0.317
  s329                     293.20       0.00       4.13     242.48      48.68       0.00      48.68        0.32    14.11   0.166
  s330                     293.20       0.00      10.37     166.15     121.96       0.00     121.96        0.16     7.35   0.416
  s331                     293.20       0.00       4.02     243.72      47.46       0.00      47.46        0.17     7.69   0.162
  s332                     293.20       0.00      23.86       0.00     281.26       0.00     281.26        0.04     1.58   0.959
  s333                     293.20       0.00       6.46     213.83      76.15       0.00      76.15        0.11     4.96   0.260
  s334                     293.20       0.00      16.74      87.96     197.01       0.00     197.01        0.04     1.98   0.672
  s335                     293.20       0.00       5.29     228.33      62.27       0.00      62.27        0.30    13.43   0.212
  s336                     293.20       0.00      12.50     139.70     147.37       0.00     147.37        0.06     2.81   0.503
  s337                     293.20       0.00       7.85     196.71      92.64       0.00      92.64        0.13     5.72   0.316
  s338                     293.20       0.00      17.70      75.39     208.82       0.00     208.82        0.04     1.65   0.712
  s339                     293.20       0.00      16.73      87.96     197.02       0.00     197.02        0.04     1.98   0.672
  s340                     293.20       0.00      16.67      87.96     196.68       0.00     196.68        0.01     0.66   0.671
  s341                     293.20       0.00       6.28     216.13      73.97       0.00      73.97        0.19     8.70   0.252
  s342                     293.20       0.00      16.66      87.96     196.66       0.00     196.66        0.03     1.33   0.671
  s343                     293.20       0.00       6.62     212.47      77.31       0.00      77.31        0.74    31.70   0.264
  s344                     293.20       0.00      23.97       0.00     281.38       0.00     281.38        0.06     2.80   0.960
  s345                     293.20       0.00      23.88       0.00     281.35       0.00     281.35        0.02     0.95   0.960
  s346                     293.20       0.00      21.55      29.32     253.36       0.00     253.36        0.06     2.53   0.864
  s347                     293.20       0.00      19.17      58.64     225.13       0.00     225.13        0.05     2.24   0.768
  s348                     293.20       0.00      19.13      58.64     225.15       0.00     225.15        0.05     2.26   0.768
  s349                     293.20       0.00      18.07      71.97     212.39       0.00     212.39        0.06     2.59   0.724
  s350                     293.20       0.00      17.78      75.39     209.07       0.00     209.07        0.04     1.63   0.713
  s351                     293.20       0.00      14.35     117.28     168.86       0.00     168.86        0.04     1.70   0.576
  s352                     293.20       0.00      21.23      34.42     247.91       0.00     247.91        0.14     6.10   0.846
  s353                     293.20       0.00      22.37      20.30     261.56       0.00     261.56        0.17     7.33   0.892
  s354                     293.20       0.00       8.93     183.83     104.98       0.00     104.98        0.23    10.36   0.358
  s355                     293.20       0.00       2.37     263.88      28.04       0.00      28.04        0.01     0.41   0.096
  s356                     293.20       0.00       7.43     201.79      87.65       0.00      87.65        0.07     3.35   0.299
  s357                     293.20       0.00      18.44      65.97     217.70       0.00     217.70        0.02     0.98   0.742
  s358                     293.20       0.00      19.60      52.78     230.79       0.00     230.79        0.09     3.88   0.787
  s359                     293.20       0.00      16.04      95.96     189.19       0.00     189.19        0.05     2.34   0.645
  s360                     293.20       0.00      23.93       0.00     281.44       0.00     281.44        0.07     3.14   0.960
  s361                     293.20       0.00      19.32      56.55     227.16       0.00     227.16        0.08     3.54   0.775
  s362                     293.20       0.00      16.23      94.24     190.98       0.00     190.98        0.07     2.98   0.651
  s363                     293.20       0.00      19.14      58.64     225.15       0.00     225.15        0.05     2.26   0.768
  s364                     293.20       0.00      15.30     105.55     180.13       0.00     180.13        0.07     3.02   0.614
  s365                     293.20       0.00      22.56      17.59     264.36       0.00     264.36        0.10     4.33   0.902
  s366                     293.20       0.00      20.37      43.98     239.17       0.00     239.17        0.07     3.17   0.816
  s367                     293.20       0.00      19.61      52.78     230.78       0.00     230.78        0.06     2.58   0.787
  s368                     293.20       0.00      18.05      71.97     212.36       0.00     212.36        0.06     2.61   0.724
  s369                     293.20       0.00      19.47      54.97     228.64       0.00     228.64        0.14     6.08   0.780
  s370                     293.20       0.00      18.45      65.97     217.72       0.00     217.72        0.02     0.98   0.743
  s371                     293.20       0.00      14.63     113.09     172.59       0.00     172.59        0.03     1.36   0.589
  s372                     293.20       0.00       6.64     211.10      78.51       0.00      78.51        0.02     0.89   0.268
  s373                     293.20       0.00      19.09      58.64     225.00       0.00     225.00        0.05     2.28   0.767
  s374                     293.20       0.00      19.54      52.78     230.54       0.00     230.54        0.03     1.30   0.786
  s375                     293.20       0.00      20.00      47.98     235.37       0.00     235.37        0.06     2.89   0.803
  s376                     293.20       0.00      21.73      26.39     256.03       0.00     256.03        0.06     2.87   0.873
  s377                     293.20       0.00      15.08     107.95     177.75       0.00     177.75        0.10     4.39   0.606
  s378                     293.20       0.00      15.90      98.95     186.46       0.00     186.46        0.37    16.32   0.636
  s379                     293.20       0.00      12.33     142.09     145.05       0.00     145.05        0.24    10.52   0.495
  s380                     293.20       0.00      14.45     115.45     170.42       0.00     170.42        0.07     3.07   0.581
  s381                     293.20       0.00      18.57      66.69     217.06       0.00     217.06        0.49    21.25   0.740
  s382                     293.20       0.00      23.93       0.00     281.44       0.00     281.44        0.06     2.82   0.960
  s383                     293.20       0.00      21.55      29.32     253.36       0.00     253.36        0.06     2.53   0.864
  s384                     293.20       0.00      23.96       0.00     281.40       0.00     281.40        0.06     2.80   0.960
  s385                     293.20       0.00      19.17      58.64     225.13       0.00     225.13        0.05     2.24   0.768
  s386                     293.20       0.00      23.88       0.00     281.36       0.00     281.36        0.02     0.95   0.960
  s387                     293.20       0.00      18.08      71.97     212.32       0.00     212.32        0.06     2.58   0.724
  s388                     293.20       0.00      14.65     113.09     172.76       0.00     172.76        0.03     1.36   0.589
  s389                     293.20       0.00      17.21      82.46     202.27       0.00     202.27        0.08     3.59   0.690
  s390                     293.20       0.00      23.93       0.00     281.44       0.00     281.44        0.06     2.82   0.960
  s391                     293.20       0.00      21.49      29.32     253.22       0.00     253.22        0.06     2.56   0.864
  s392                     293.20       0.00      13.67     125.66     160.82       0.00     160.82        0.08     3.77   0.549
  s393                     293.20       0.00      21.05      35.18     247.67       0.00     247.67        0.09     4.14   0.845
  s394                     293.20       0.00      22.12      21.99     260.37       0.00     260.37        0.08     3.49   0.888
  s395                     293.20       0.00      21.79      26.39     256.10       0.00     256.10        0.06     2.84   0.873
  s396                     293.20       0.00      22.28      21.11     260.95       0.00     260.95        0.16     7.11   0.890
  s397                     293.20       0.00       3.02     255.88      35.71       0.00      35.71        0.03     1.33   0.122
  s398                     293.20       0.00       2.37     263.88      28.04       0.00      28.04        0.01     0.60   0.096
  s399                     293.20       0.00       2.37     263.88      28.03       0.00      28.03        0.01     0.32   0.096
  s400                     293.20       0.00      12.38     140.74     146.10       0.00     146.10        0.05     2.47   0.498
  s401                     293.20       0.00      11.91     146.60     140.50       0.00     140.50        0.06     2.85   0.479
  s402                     293.20       0.00      17.67      75.39     208.64       0.00     208.64        0.04     1.65   0.712
  s403                     293.20       0.00      19.59      52.78     230.81       0.00     230.81        0.06     2.59   0.787
  s404                     293.20       0.00      17.43      79.16     205.42       0.00     205.42        0.05     2.31   0.701
  s405                     293.20       0.00       7.72     198.63      90.77       0.00      90.77        0.41    18.37   0.310
  s406                     293.20       0.00       4.56     237.04      53.81       0.00      53.81        0.08     3.58   0.184
  s407                     293.20       0.00      12.57     139.94     146.88       0.00     146.88        0.48    20.86   0.501
  s408                     293.20       0.00      17.42      79.16     205.32       0.00     205.32        0.05     2.31   0.700
  s409                     293.20       0.00       5.75     222.49      67.79       0.00      67.79        0.09     3.89   0.231
  s410                     293.20       0.00      14.33     117.28     168.84       0.00     168.84        0.04     1.71   0.576
  s411                     293.20       0.00      21.12      35.18     247.48       0.00     247.48        0.09     4.06   0.844
  s412                     293.20       0.00      18.05      71.97     212.39       0.00     212.39        0.06     2.61   0.724
  s413                     293.20       0.00      16.72      87.96     196.99       0.00     196.99        0.07     3.31   0.672
  s414                     293.20       0.00      19.41      54.98     228.61       0.00     228.61        0.05     2.05   0.780
  s415                     293.20       0.00       9.13     181.75     106.89       0.00     106.89        0.63    27.27   0.365
  s416                     293.20       0.00      14.67     113.09     172.83       0.00     172.83        0.06     2.72   0.589
  s417                     293.20       0.00      10.81     160.62     127.27       0.00     127.27        0.07     3.28   0.434
  s418                     293.20       0.00       9.54     175.92     112.50       0.00     112.50        0.04     1.90   0.384
  s419                     293.20       0.00      14.13     119.95     166.30       0.00     166.30        0.09     4.08   0.567
  s420                     293.20       0.00       7.65     199.26      90.18       0.00      90.18        0.11     4.95   0.308
  s421                     293.20       0.00      15.35     105.55     180.03       0.00     180.03        0.20     8.90   0.614
  s422                     293.20       0.00      19.61      52.78     230.77       0.00     230.77        0.06     2.58   0.787
  s423                     293.20       0.00      17.37      81.19     203.23       0.00     203.23        0.26    11.42   0.693
  s424                     293.20       0.00      15.03     111.59     172.51       0.00     172.51        2.60    98.20   0.588
  s425                     293.20       0.00      17.75      75.39     209.04       0.00     209.04        0.15     6.55   0.713
  s426                     293.20       0.00      23.99       0.00     281.27       0.00     281.27        0.20     8.94   0.959
  s427                     293.20       0.00      24.00       0.00     281.25       0.00     281.25        0.20     8.92   0.959
  s428                     293.20       0.00      22.63      16.49     265.51       0.00     265.51        0.11     4.67   0.906
  s429                     293.20       0.00      23.94       0.00     281.72       0.00     281.72        0.06     2.82   0.961
  s430                     293.20       0.00       9.05     182.32     106.44       0.00     106.44        0.15     6.52   0.363
  s431                     293.20       0.00      13.86     123.14     163.22       0.00     163.22        0.06     2.74   0.557
  s432                     293.20       0.00      21.60      30.76     250.75       0.00     250.75        1.02    41.93   0.855
  s433                     293.20       0.00      19.17      57.72     226.01       0.00     226.01        0.18     8.12   0.771
  s434                     293.20       0.00      22.89      15.52     264.83       0.00     264.83        0.90    36.01   0.903
  s435                     293.20       0.00      23.93       0.00     281.44       0.00     281.44        0.08     3.45   0.960
  s436                     293.20       0.00      23.96       0.00     281.40       0.00     281.40        0.11     4.98   0.960
  s437                     293.20       0.00      22.93      16.56     262.24       0.00     262.24        1.67    61.09   0.894
  s438                     293.20       0.00      23.98       0.00     281.33       0.00     281.33        0.16     7.12   0.960
  s439                     293.20       0.00      23.97       0.00     281.38       0.00     281.38        0.13     5.60   0.960
  s440                     293.20       0.00      22.07      21.99     260.15       0.00     260.15        0.07     2.92   0.887
  s441                     293.20       0.00      23.97       0.00     281.38       0.00     281.38        0.10     4.35   0.960
  s442                     293.20       0.00      17.96      74.97     208.51       0.00     208.51        0.46    18.82   0.711
  s443                     293.20       0.00      11.42     153.53     134.03       0.00     134.03        0.37    16.26   0.457
  s444                     293.20       0.00       6.86     209.38      80.40       0.00      80.40        0.37    16.19   0.274
  s445                     293.20       0.00       2.37     263.88      28.05       0.00      28.05        0.11     4.81   0.096
  s446                     293.20       0.00       2.37     263.88      28.03       0.00      28.03        0.01     0.28   0.096
  s447                     293.20       0.00      24.19       0.00     279.48       0.00     279.48        0.46    18.31   0.953
  s448                     293.20       0.00      11.13     157.07     130.64       0.00     130.64        0.14     6.06   0.446
  s449                     293.20       0.00       5.14     230.09      60.54       0.00      60.54        0.25    11.16   0.206
  s450                     293.20       0.00       7.74     197.91      91.31       0.00      91.31        0.04     1.65   0.311
  s451                     293.20       0.00       6.39     214.40      75.47       0.00      75.47        0.03     1.36   0.257
  s452                     293.20       0.00       2.37     263.88      28.05       0.00      28.05        0.02     0.95   0.096
  s453                     293.20       0.00       2.37     263.88      28.04       0.00      28.04        0.01     0.35   0.096
  s454                     293.20       0.00       2.37     263.88      28.03       0.00      28.03        0.02     0.70   0.096
  s455                     293.20       0.00       2.37     263.88      28.03       0.00      28.03        0.01     0.38   0.096
  s456                     293.20       0.00      17.93      74.22     210.14       0.00     210.14        0.17     7.32   0.717
  s457                     293.20       0.00      23.12      12.27     268.42       0.00     268.42        0.58    23.70   0.915
  s458                     293.20       0.00      18.11      72.22     211.83       0.00     211.83        0.50    21.75   0.722
  s459                     293.20       0.00      15.79      98.96     186.23       0.00     186.23        0.07     3.35   0.635
  s460                     293.20       0.00      24.01       0.00     281.17       0.00     281.17        0.39    16.83   0.959
  s461                     293.20       0.00      18.92      64.26     217.82       0.00     217.82        1.68    64.82   0.743
  s462                     293.20       0.00      22.08      22.95     259.40       0.00     259.40        0.15     6.62   0.885
  s463                     293.20       0.00      23.91       0.00     281.43       0.00     281.43        0.07     3.15   0.960
  s464                     293.20       0.00      23.91       0.00     281.42       0.00     281.42        0.06     2.52   0.960
  s465                     293.20       0.00      23.92       0.00     281.44       0.00     281.44        0.06     2.83   0.960
  s466                     293.20       0.00      23.85       0.00     281.21       0.00     281.21        0.02     0.95   0.959
  s467                     293.20       0.00      14.16     121.43     163.81       0.00     163.81        0.93    36.98   0.559
  s468                     293.20       0.00      20.56      47.27     231.01       0.00     231.01        2.55    77.83   0.788
  s469                     293.20       0.00      22.46      19.99     261.27       0.00     261.27        0.43    17.94   0.891
  s470                     293.20       0.00      24.05       0.00     280.88       0.00     280.88        0.17     7.21   0.958
  s471                     293.20       0.00      14.88     109.95     175.60       0.00     175.60        0.05     2.37   0.599
  s472                     293.20       0.00      21.64      27.78     254.79       0.00     254.79        0.12     5.42   0.869
  s473                     293.20       0.00      20.67      39.58     243.45       0.00     243.45        0.12     5.45   0.830
  s474                     293.20       0.00      23.97       0.00     281.37       0.00     281.37        0.09     4.04   0.960
  s475                     293.20       0.00      11.13     158.55     128.01       0.00     128.01        1.51    57.64   0.437
  s476                     293.20       0.00      23.99       0.00     281.29       0.00     281.29        0.08     3.70   0.959
  s477                     293.20       0.00      18.40      67.97     216.18       0.00     216.18        0.36    15.83   0.737
  s478                     293.20       0.00      21.02      38.38     242.89       0.00     242.89        0.33    13.26   0.828
  s479                     293.20       0.00      24.11       0.00     280.38       0.00     280.38        0.31    12.83   0.956
  s480                     293.20       0.00      19.44      54.97     228.67       0.00     228.67        0.14     6.11   0.780
  s481                     293.20       0.00      23.88       0.00     281.41       0.00     281.41        0.01     0.63   0.960
  s482                     293.20       0.00      23.91       3.38     276.19       0.00     276.19        0.54    21.31   0.942
  s483                     293.20       0.00      23.90       0.00     281.45       0.00     281.45        0.02     0.95   0.960
  s484                     293.20       0.00      17.39      80.31     204.34       0.00     204.34        0.12     5.22   0.697
  s485                     293.20       0.00      21.57      29.32     253.25       0.00     253.25        0.06     2.52   0.864
  s486                     293.20       0.00      22.74      16.49     264.72       0.00     264.72        0.21     8.87   0.903
  s487                     293.20       0.00      24.05       0.00     280.94       0.00     280.94        0.18     7.84   0.958
  s488                     293.20       0.00      23.95       0.00     281.42       0.00     281.42        0.06     2.50   0.960
  s489                     293.20       0.00       2.37     263.88      28.02       0.00      28.02        0.00     0.13   0.096
  s490                     293.20       0.00       2.37     263.88      28.02       0.00      28.02        0.00     0.16   0.096
  s491                     293.20       0.00       5.24     228.70      61.83       0.00      61.83        0.09     4.18   0.211
  s492                     293.20       0.00       9.27     179.34     109.28       0.00     109.28        0.28    12.63   0.373
  s493                     293.20       0.00      13.08     133.61     153.08       0.00     153.08        0.60    26.20   0.522
  s494                     293.20       0.00      13.04     133.72     153.06       0.00     153.06        0.76    33.49   0.522
  s495                     293.20       0.00       5.42     226.18      64.08       0.00      64.08        0.02     1.01   0.219
  s496                     293.20       0.00       6.39     214.40      75.41       0.00      75.41        0.06     2.72   0.257
  s497                     293.20       0.00       3.86     245.47      45.66       0.00      45.66        0.05     2.22   0.156
  s498                     293.20       0.00       4.74     234.56      56.06       0.00      56.06        0.01     0.57   0.191
  s499                     293.20       0.00       5.29     227.90      62.47       0.00      62.47        0.03     1.55   0.213
  s500                     293.20       0.00       2.37     263.88      28.02       0.00      28.02        0.01     0.28   0.096
  s501                     293.20       0.00       2.37     263.88      28.04       0.00      28.04        0.00     0.09   0.096
  s502                     293.20       0.00       2.37     263.88      28.02       0.00      28.02        0.01     0.32   0.096
  s503                     293.20       0.00       4.74     234.56      56.06       0.00      56.06        0.01     0.57   0.191
  s504                     293.20       0.00       6.39     214.40      75.40       0.00      75.40        0.03     1.36   0.257
  s505                     293.20       0.00       5.11     230.52      60.15       0.00      60.15        0.40    17.88   0.205
  s506                     293.20       0.00       8.80     185.45     103.43       0.00     103.43        1.03    45.61   0.353
  s507                     293.20       0.00      17.74      75.39     209.20       0.00     209.20        0.07     3.28   0.713
  s508                     293.20       0.00      11.90     146.60     140.50       0.00     140.50        0.06     2.85   0.479
  s509                     293.20       0.00      10.25     167.12     120.87       0.00     120.87        0.09     4.08   0.412
  s510                     293.20       0.00      18.06      71.97     212.41       0.00     212.41        0.06     2.60   0.724
  s511                     293.20       0.00      24.02       0.00     281.10       0.00     281.10        0.13     5.48   0.959
  s512                     293.20       0.00      22.32      20.30     261.84       0.00     261.84        0.09     3.74   0.893
  s513                     293.20       0.00      12.10     145.47     141.68       0.00     141.68        0.28    12.05   0.483
  s514                     293.20       0.00      13.98     122.29     164.30       0.00     164.30        0.17     7.39   0.560
  s515                     293.20       0.00       6.62     212.14      77.80       0.00      77.80        0.40    17.60   0.265
  s516                     293.20       0.00       4.58     237.04      53.90       0.00      53.90        0.24    10.69   0.184
  s517                     293.20       0.00      11.42     154.09     133.19       0.00     133.19        0.91    38.69   0.454
  s518                     293.20       0.00       8.70     186.27     102.56       0.00     102.56        0.09     3.92   0.350
  s519                     293.20       0.00       2.57     261.61      30.28       0.00      30.28        0.09     3.96   0.103
  s520                     293.20       0.00      12.94     136.75     148.74       0.00     148.74        1.43    54.63   0.507
  s521                     293.20       0.00      19.57      54.97     227.95       0.00     227.95        0.27    11.49   0.777
  s522                     293.20       0.00       2.37     263.88      28.04       0.00      28.04        0.03     1.46   0.096
  s523                     293.20       0.00       9.09     181.78     106.94       0.00     106.94        0.12     5.38   0.365
  s524                     293.20       0.00      16.61      91.77     192.12       0.00     192.12        3.55   142.01   0.655
  s525                     293.20       0.00       2.37     263.88      28.05       0.00      28.05        0.03     1.33   0.096
  s526                     293.20       0.00       2.37     263.88      28.06       0.00      28.06        0.02     0.82   0.096
  s527                     293.20       0.00       2.38     263.88      28.06       0.00      28.06        0.07     3.01   0.096
  s528                     293.20       0.00      13.25     131.02     155.65       0.00     155.65        0.56    24.63   0.531
  s529                     293.20       0.00      20.55      42.56     240.15       0.00     240.15        0.37    15.98   0.819
  s530                     293.20       0.00      19.62      53.67     229.71       0.00     229.71        0.34    14.76   0.783
  s531                     293.20       0.00      24.13       0.00     280.16       0.00     280.16        0.18     7.48   0.956
  s532                     293.20       0.00      19.82      50.75     232.67       0.00     232.67        0.15     6.67   0.794
  s533                     293.20       0.00      10.17     167.92     120.03       0.00     120.03        0.03     1.49   0.409
  s534                     293.20       0.00       7.95     195.64      93.64       0.00      93.64        0.14     6.08   0.319
  s535                     293.20       0.00      14.90     109.95     175.73       0.00     175.73        0.05     2.37   0.599
  s536                     293.20       0.00      16.33      93.82     191.19       0.00     191.19        0.22     9.36   0.652
  s537                     293.20       0.00      18.82      62.09     221.84       0.00     221.84        0.09     4.23   0.757
  s538                     293.20       0.00      13.06     131.94     154.28       0.00     154.28        0.02     0.70   0.526
  s539                     293.20       0.00      23.84       0.00     281.19       0.00     281.19        0.03     1.27   0.959
  s540                     293.20       0.00      11.78     148.43     138.85       0.00     138.85        0.06     2.50   0.474
  s541                     293.20       0.00       4.73     235.02      55.78       0.00      55.78        0.09     4.02   0.190
  s542                     293.20       0.00       5.67     223.28      66.96       0.00      66.96        0.02     0.98   0.228
  
  
  ******************
  Node Depth Summary
  ******************
  
  ---------------------------------------------------------------------------------
                                 Average  Maximum  Maximum  Time of Max    Reported
                                   Depth    Depth      HGL   Occurrence   Max Depth
  Node                 Type       Meters   Meters   Meters  days hr:min      Meters
  ---------------------------------------------------------------------------------
  1                    JUNCTION     0.24     3.14    71.31    72  11:04        1.83
  2                    JUNCTION     0.59     2.96    73.00    72  11:02        2.34
  3                    JUNCTION     0.23     2.69    71.43    72  10:57        2.37
  4                    JUNCTION     0.34     3.15    71.47    88  14:45        2.18
  5                    JUNCTION     0.53     2.69    72.79    72  11:08        2.03
  6                    JUNCTION     0.01     0.53    72.41    72  10:54        0.48
  7                    JUNCTION     0.01     1.56    76.00    88  14:37        1.54
  8                    JUNCTION     0.01     1.24    75.61    72  10:59        1.23
  9                    JUNCTION     0.01     2.15    76.71    72  10:58        1.56
  10                   JUNCTION     0.01     1.54    76.63    88  14:32        0.68
  11                   JUNCTION     0.01     0.59    76.00    72  10:55        0.51
  12                   JUNCTION     0.01     0.64    75.96    72  10:55        0.57
  13                   JUNCTION     0.28     2.75    72.50    72  11:04        2.75
  14                   JUNCTION     0.36     2.55    72.00    72  11:03        2.22
  15                   JUNCTION     0.47     0.90    72.69    63  12:37        0.89
  16                   JUNCTION     0.48     0.89    72.64    63  12:37        0.88
  17                   JUNCTION     0.00     1.20    73.75    72  10:51        0.51
  18                   JUNCTION     0.28     2.81    72.50    72  11:05        2.26
  19                   JUNCTION     0.00     0.87    79.50    72  10:56        0.28
  20                   JUNCTION     0.40     0.75    73.68    63  12:31        0.71
  21                   JUNCTION     0.00     1.31    81.00    72  10:59        1.31
  22                   JUNCTION     0.00     1.11    80.20    88  14:30        0.56
  23                   JUNCTION     0.00     0.15    80.13    88  14:32        0.14
  24                   JUNCTION     0.00     0.13    79.15    88  14:32        0.12
  25                   JUNCTION     0.00     0.13    78.44    88  14:32        0.11
  26                   JUNCTION     0.00     0.12    79.36    88  14:32        0.11
  27                   JUNCTION     0.00     1.45    76.00    63  11:33        0.95
  28                   JUNCTION     0.00     0.13    78.30    72  10:52        0.12
  29                   JUNCTION     0.00     1.10    75.86    63  11:32        0.33
  30                   JUNCTION     0.01     1.59    77.50    72  10:50        1.59
  31                   JUNCTION     0.01     1.45    77.14    72  11:01        1.45
  32                   JUNCTION     0.01     1.47    76.58    72  11:04        1.47
  33                   JUNCTION     0.01     1.46    77.03    72  11:05        1.45
  34                   JUNCTION     0.01     1.43    80.50    72  10:56        1.43
[...]
  8193                        1.21      1.47      1.22      2.49         0.70
  6029                        0.17      0.63      0.17      2.09         0.11
  5738                       40.38     40.42     42.09     11.53         1.28
  6091                        0.30      0.43      0.30      1.44         0.18
  8280                        0.13      0.14      0.22      0.01         0.06
  9727                        1.68      1.73      3.44      0.81         0.58
  5534                        1.85      1.85      2.33      0.01         0.91
  18817                       0.31      0.31      0.31      0.51         0.14
  16004                       0.64      0.64      0.94      0.01         0.24
  16197                       4.24      4.41      4.36      4.23         2.83
  11885                       0.21      0.22      0.27      0.01         0.12
  18954                       1.05      1.05     12.04      0.01         0.24
  18824                       0.45      0.45      0.56      0.31         0.21
  10769                       0.01      4.39      0.01      5.42         0.01
  10586                       0.21      0.22      0.27      0.10         0.08
  10584                       0.08      0.09      0.22      0.01         0.04
  18918                       0.49      0.50      1.05      0.34         0.23
  11948                       0.01      0.02      0.55      0.01         0.01
  18819                       0.45      0.45      1.07      0.05         0.19
  13070                       3.89      3.91      3.97      0.77         1.77
  16194                       4.21      4.34      4.35      2.64         2.05
  12904                       5.99      6.05      6.23      0.09         2.19
  18921                       0.01      0.01      0.01      0.15         0.01
  16001                       0.01      0.01      0.14      0.01         0.01
  13069                       3.58      3.58      3.81      0.01         0.92
  11755                      19.86     20.22     19.89     40.84        14.22
  10768                       1.44      4.35      1.44      4.91         1.33
  11913                       4.25      4.56      4.28      7.24         2.72
  13089                       4.91      5.17      4.91      5.74         3.69
  11918                       0.01      1.05      0.01      5.03         0.01
  16517                       2.52      2.52      3.42      0.01         0.43
  11611                      12.74     12.75     13.15      5.07         5.74
  16518                       3.42      3.42      4.36      0.01         0.26
  16158                       0.17      0.17      0.32      0.01         0.05
  11951                       3.98      4.14      4.20      0.58         2.10
  11553                       0.01      0.03      0.02      5.02         0.01
  10588                       0.01      0.28      0.01      0.67         0.01
  16573                       4.34      4.36      5.96      0.59         0.95
  11886                       0.04      0.24      0.04      3.28         0.03
  12896                       8.06      8.16      8.61      0.27         2.66
  16200                       5.95      6.00      6.16      1.96         2.61
  11545                      28.50     28.50     30.30      0.71         3.53
  10762                       3.88      3.88      4.04      3.04         2.19
  13079                       4.88      4.89      5.19      1.44         1.23
  18820                       1.07      1.07      1.72      0.10         0.34
  10577                       0.01      0.01      0.01      0.01         0.01
  18916                       0.40      0.41      0.46      0.45         0.23
  18816                       0.28      0.28      0.31      0.01         0.13
  12905                       5.77      5.80      6.05      0.01         2.07
  10587                       0.04      0.27      0.04      0.66         0.03
  11616                       0.13      0.16      0.22      0.01         0.05
  16198                       4.41      4.41      5.67      0.01         0.64
  12902                       6.25      6.25      8.16      0.01         2.11
  11544                      24.88     24.88     31.34      0.01         3.06
  13090                       3.93      4.91      3.93      5.92         2.87
  11554                       0.03      4.20      0.03     41.59         0.03
  16195                       4.26      4.36      4.41      2.51         1.77
  13270                       3.76      3.77      3.82      3.29         2.43
  16561                       7.61      7.62      9.48      2.69         1.64
  18955                       0.94     12.04      0.94    101.99         0.74
  16159                       0.01      0.01      0.17      0.01         0.01
  16500                       0.01      0.01      1.08      0.01         0.01
  13076                       4.37      4.37      4.89      1.02         0.83
  13268                       3.79      3.80      3.98      2.86         2.45
  11615                       2.62      2.63      3.98      0.01         0.50
  18920                       0.01      0.56      0.01      1.31         0.01
  10759                       0.53      0.53      0.61      0.01         0.20
  16575                       0.01      0.39      0.01      8.24         0.01
  13273                       3.33      3.41      3.42      3.51         2.32
  13083                       5.05      5.21      5.06      5.17         3.45
  11892                       0.01      0.01      0.01      0.01         0.01
  11914                       3.98      4.28      4.08      5.25         2.32
  10766                       3.99      4.52      3.99      5.55         3.42
  13272                       3.39      3.64      3.41      9.05         2.53
  16002                       0.46      0.52      0.49      0.01         0.19
  11893                       0.01      0.01      0.15      0.01         0.01
  11949                       4.07      4.24      4.14      0.19         1.85
  11891                       0.03      0.04      0.03      5.55         0.02
  13271                       3.63      3.82      3.64      5.90         2.53
  10767                       3.99      3.99      4.35      2.99         2.19
  18946                       0.40      0.40      0.66      0.20         0.18
  10763                       3.85      4.04      3.85      4.85         3.03
  11754                      11.09     11.10     20.22      0.92         1.47
  10764                       3.52      3.85      3.53      4.46         2.82
  16572                       5.83      5.95      6.67      3.74         1.53
  13241                       0.33      0.33      0.39      0.01         0.15
  16520                       4.57      4.58      5.14      0.94         1.45
  16169                       1.32      1.34      1.39      0.04         0.57
  16556                       7.36      7.36      9.89      0.01         1.27
  13277                       0.20      2.17      0.20      4.11         0.15
  11543                      16.66     16.67     24.88      0.01         2.98
  16519                       4.36      4.36      4.58      1.02         1.60
  10761                       1.09      1.09      1.95      0.01         0.28
  12898                      10.05     10.12     11.14      0.88         3.19
  18947                       0.51      0.66      0.54      2.61         0.34
  10579                       0.01      0.01      0.02      0.17         0.01
  16205                       7.72      7.72      8.18      0.03         1.95
  12895                       5.97      5.97      8.15      0.01         1.79
  16555                       7.05      7.14      7.34      5.51         4.09
  10585                       0.08      0.11      0.09      0.34         0.04
  16522                       5.54      5.54      5.72      0.68         1.97
  13245                       0.35      0.54      0.36      0.84         0.25
  11756                      19.79     19.89     19.83     24.14        14.37
  18917                       0.44      0.46      0.50      0.63         0.29
  18822                       1.08      1.40      1.13      2.60         0.70
  11565                      36.36     36.99     36.36     40.51        33.10
  11941                       4.22      4.26      4.34      0.21         2.11
  11950                       3.96      4.14      4.11      0.48         1.60
  11939                       4.91      4.91      6.57      0.95         0.85
  10758                       0.50      0.52      0.53      0.18         0.23
  18821                       1.38      1.72      1.40      2.71         0.98
  16560                       9.41      9.48      9.63      3.09         3.41
  13240                       0.28      0.29      0.33      0.01         0.13
  11566                      34.77     36.35     34.77     40.84        31.85
  16202                       6.24      6.26      6.34      2.44         3.27
  16558                      10.19     10.57     10.22     13.70         8.01
  16188                       1.44      1.45      1.66      0.01         0.42
  13274                       3.03      3.42      3.06      5.05         2.25
  11564                      36.26     36.26     36.99     34.43        31.81
  13075                       3.96      3.97      4.37      0.22         0.62
  11567                       4.24     34.75      4.24     58.50         3.89
  13239                       0.18      0.18      0.29      0.01         0.06
  13243                       0.39      0.40      0.51      0.11         0.23
  13276                       3.17      3.26      3.26      4.25         2.15
  11894                       0.15      0.15      0.22      0.01         0.04
  16559                       9.46     10.22      9.48     14.68         7.49
  18956                       0.32      0.52      0.41     12.45         0.24
  16204                       6.29      6.34      6.49      1.97         2.09
  11604                      26.92     26.92     29.77     13.66        11.04
  10765                       2.63      3.53      2.63      4.77         2.11
  11569                       0.01      0.01      0.04      0.01         0.01
  18938                       0.31      0.32      0.40      0.09         0.16
  13269                       3.76      3.98      3.77      5.71         2.76
  11570                       3.63      3.64      4.95      0.01         0.33
  10583                       0.25      0.31      0.25      1.49         0.17
  11757                       2.53     19.83      2.53     42.36         2.51
  16192                       3.91      3.93      4.34      0.01         1.35
  10580                       0.02      0.02      0.24      0.01         0.01
  11938                       4.80      4.82      4.91      0.37         2.86
  11919                       0.01      0.01      0.01      4.01         0.01
  11602                      36.23     36.65     36.26     39.73        33.64
  13066                       3.55      3.55      3.58      0.07         1.27
  11606                      20.66     20.66     24.60      1.07         4.20
  11603                      29.77     29.77     36.14      1.43         3.31
  11607                      24.60     24.60     26.17      1.53         3.16
  18953                       9.39     37.44      9.39     41.74         9.39
  12889                      13.13     13.13     18.90      0.34         2.02
  11916                       2.23      3.27      2.33      6.63         1.39
  11947                       0.01      0.01      0.34      0.01         0.01
  18915                       0.41      0.46      0.41      0.88         0.27
  16521                       5.14      5.15      5.54      0.34         0.64
  13062                       3.09      3.10      3.18      0.01         1.40
  16189                       1.66      1.66      2.48      0.01         0.36
  11943                       4.30      4.33      4.82      0.13         0.96
  11915                       3.21      4.07      3.28      6.14         2.02
  11556                       4.13      4.43      4.19      4.83         2.73
  18960                       0.89      0.89      5.25      0.01         0.21
  16562                       6.61      6.66      7.62      2.32         1.83
  13065                       3.25      3.27      3.33      0.01         1.03
  11612                      12.75     13.86     12.75     21.78        10.82
  11614                       4.00      4.00      9.48      0.01         0.81
  16163                       1.23      1.25      1.34      0.01         0.53
  10760                       0.61      0.61      1.09      0.01         0.19
  11609                      19.10     19.11     20.28      3.16         3.24
  11917                       1.04      2.33      1.08      4.87         0.67
  12906                       4.91      4.93      5.80      0.01         1.80
  11610                      12.69     12.69     19.11      0.01         2.35
  16199                       5.67      5.68      6.00      0.02         1.35
  11568                       0.01      4.18      0.01     13.72         0.01
  12897                       8.57      8.62     10.11      0.28         2.79
  16523                       5.60      5.72      6.11      4.93         3.63
  18914                       0.37      0.37      0.46      0.01         0.02
  10582                       0.19      0.19      0.42      0.01         0.06
  16007                       0.49      0.51      0.62      0.01         0.21
  11555                       4.39      4.95      4.40      6.90         3.79
  12888                      18.90     18.90     19.50      1.93         4.98
  11752                       7.58      7.59      7.71      2.23         1.15
  13088                       5.01      5.05      5.17      4.45         3.38
  11753                       7.71      7.71     11.09      0.41         0.67
  18818                       0.31      0.31      0.45      0.11         0.15
  10581                       0.19      0.24      0.19      1.29         0.12
  16509                       4.13      4.13     14.33      8.62         1.10
  13275                       2.82      3.05      2.96      3.49         2.03
  18823                       1.02      1.13      1.05      3.41         0.61
  16003                       0.49      0.50      0.65      0.01         0.22
  10578                       0.01      0.01      0.01      0.01         0.01
  11940                       3.22      3.24      4.26      0.02         0.92
  13091                       3.10      3.93      3.10      5.67         2.22
  16557                      10.11     10.13     10.57      8.45         6.88
  10757                       0.38      0.38      0.52      0.01         0.19
  13242                       0.37      0.39      0.40      0.12         0.16
  13244                       0.50      0.51      0.54      0.35         0.19
  16008                       0.68      0.68      2.52      0.01         0.16
  11953                       4.25      4.25      4.78      0.94         2.09
  16574                       0.38      0.39      2.57      5.18         0.07
  11912                       4.55      4.78      4.56      6.11         2.83
  16201                       6.10      6.16      6.26      2.05         2.36
  16554                       7.13      7.21      7.14      6.14         5.40
  16191                       3.66      3.71      3.93      0.16         1.00
  11952                       4.09      4.20      4.27      0.31         1.11
  11605                      26.17     26.17     26.92     11.87         9.31
  13080                       5.17      5.19      5.21      3.98         3.14
  26027                       1.26      1.28      1.48      0.01         0.37
  22272                       0.01      0.01     52.72      0.01         0.01
  22703                       8.94      9.00      9.48      4.62         5.71
  24938                      91.18     91.18   1906.77      0.01         1.33
  26443                       3.13      3.13   1906.76      0.01         0.04
  26757                      16.07     16.37     19.10      7.31         5.46
  24941                       3.56      3.59      3.90      1.68         1.32
  22701                       9.52      9.52     11.91      0.01         0.04
  21755                       0.03      0.03      0.28      0.01         0.01
  21783                       2.33      2.59      2.37   2229.38         1.11
  21784                       2.28      2.35      2.52      0.55         1.02
  26018                       2.46      2.46      3.22      0.01         0.42
  26747                       5.35      5.35      5.57      0.34         1.79
  22273                      13.82     13.82     27.44      0.01         0.01
  21882                       0.77      0.77      2.75      0.01         0.09
  21754                       0.01      0.01      0.03      0.01         0.01
  26444                       3.13      3.13     10.01      0.01         0.08
  21757                       0.61      0.61      0.89      0.01         0.21
  26750                       8.30      8.47      8.95      3.94         4.11
  21910                       0.01      0.01   1905.71      0.01         0.01
  21880                       0.26      0.26      0.77      0.01         0.03
  21925                       1.66      1.66   1907.15      0.01         0.01
  21756                       0.28      0.28      0.61      0.01         0.07
  24940                       2.90      2.93      3.36      1.31         1.08
  26746                       5.28      5.70      6.78      2.94         2.90
  24942                       3.90      3.90     91.18      0.99         0.93
  26442                       3.23      3.23   1906.76      0.01         0.03
  26753                      19.08     19.10     29.17      5.77         5.10
  24933                       3.44      3.45      3.80      2.83         2.22
  26756                      19.50     19.50     31.63     54.94         2.39
  22639                       0.21      0.21      0.53      0.01         0.05
  25659                       2.03      2.03      2.88      0.01         0.73
  22702                      11.91     11.91     11.91      7.14         7.61
  21797                       0.01     10.41      0.01     16.14         0.01
  25655                       2.31      2.33      2.60      0.01         1.06
  26262                       2.50      2.52      3.14      0.72         0.93
  26749                       5.17      8.95      5.17      7.27         2.93
  22704                      11.91     11.91     13.82      0.01         0.02
  30386                       0.01      2.89      0.01      3.78         0.01
  10521                       0.01      0.03      0.01      4.20         0.01
  16011                       0.01      3.98      0.01      8.47         0.01
  29722                       0.50      0.73      0.56      4.75         0.31
  29723                       0.65      0.69      0.87      0.14         0.26
  26470                       0.38      0.41      0.73      0.01         0.08
  1                           8.59     12.49     10.51     74.97         3.43
  so-d-15                     0.01      0.01      0.01      0.01         0.01
  5551                        1.87      1.88      2.30      0.01         0.44
  5620                       35.71     35.77     35.80     14.16         3.34
  so-d-20                     0.01      0.01      5.20      0.01         0.01
  

  Analysis begun on:  Thu Jun 25 02:24:25 2020
  Analysis ended on:  Thu Jun 25 03:08:23 2020
  Total elapsed time: 00:43:58